version 2
run case1-0-20181209-15:38:14-2992
attr configname case1
attr datetime 20181209-15:38:14
attr experiment case1
attr inifile omnetpp.ini
attr iterationvars "$0=\"uniform\""
attr iterationvarsf uniform-
attr measurement "$0=\"uniform\""
attr network ParallelExamSession
attr processid 2992
attr repetition 0
attr replication #0
attr resultdir results
attr runnumber 0
attr seedset 0
param **.teachersNumber 3
param **.answerTimeDistribution "\"uniform\""
param **.minUniform 300
param **.maxUniform 1800

vector 0 ParallelExamSession.teacher[1] examinationTime:vector ETV
attr source examFinished
vector 1 ParallelExamSession.teacher[2] examinationTime:vector ETV
attr source examFinished
vector 2 ParallelExamSession.teacher[0] examinationTime:vector ETV
attr source examFinished
0	7	3510.736746224575	3510.7367462246
0	15	6087.532569374889	2576.7958231503
0	23	9189.932382828556	3102.3998134537
0	32	11963.555324496702	2773.6229416681
0	39	15628.02947277669	3664.47414828
0	49	19101.45434048027	3473.4248677036
0	56	22227.437386242675	3125.9830457624
0	63	24713.154318672607	2485.7169324299
0	72	26892.617802042517	2179.4634833699
0	81	30280.011099879633	3387.3932978371
0	92	34303.821412590336	4023.8103127107
0	99	36415.919544710781	2112.0981321204
0	105	38478.035972965885	2062.1164282551
0	116	42471.723681804728	3993.6877088388
0	125	45257.501973537733	2785.778291733
0	138	49575.727858208125	4318.2258846704
0	151	54514.454064262105	4938.726206054
0	166	59294.17914866936	4779.7250844073
0	174	61948.445521784021	2654.2663731147
0	179	64253.61184054055	2305.1663187565
0	189	67693.239195132636	3439.6273545921
0	196	69467.542339302607	1774.30314417
0	203	71448.675813898452	1981.1334745958
0	212	74818.820697278724	3370.1448833803
0	219	78340.944509371193	3522.1238120925
0	228	82114.495577383796	3773.5510680126
0	235	84453.776096412922	2339.2805190291
0	246	89225.528505211707	4771.7524087988
0	256	92547.724153753382	3322.1956485417
0	265	95160.890362691146	2613.1662089378
0	274	97915.886443667126	2754.996080976
0	283	100992.511814413605	3076.6253707465
0	292	104574.748375732464	3582.2365613189
0	305	109417.871580831719	4843.1232050993
0	315	112947.69782549703	3529.8262446653
0	326	116454.477247875197	3506.7794223782
0	339	121090.125934523544	4635.6486866483
0	351	124214.99068946579	3124.8647549422
0	360	127834.833149705096	3619.8424602393
0	370	131512.484575621798	3677.6514259167
0	379	135547.533386712908	4035.0488110911
0	388	138461.967230611496	2914.4338438986
0	401	141850.229033664816	3388.2618030533
0	407	144521.259228489377	2671.0301948246
0	417	148225.942905759454	3704.6836772701
0	424	151207.355711585857	2981.4128058264
0	433	153855.693891830758	2648.3381802449
0	442	157154.868023749457	3299.1741319187
0	452	161091.438806522654	3936.5707827732
0	461	164818.255861988308	3726.8170554657
0	473	168480.636871978658	3662.3810099903
0	480	171194.015702186169	2713.3788302075
0	489	174121.671674936096	2927.6559727499
0	497	176208.588372822868	2086.9166978868
0	506	179499.450311763229	3290.8619389404
0	517	183166.306100646052	3666.8557888828
0	524	184671.764032635856	1505.4579319898
0	536	189199.029553262535	4527.2655206267
0	546	192918.497366854008	3719.4678135915
0	553	196896.420970908384	3977.9236040544
0	562	200128.605592623372	3232.184621715
0	571	203769.735569204223	3641.1299765809
0	581	207112.564922939075	3342.8293537349
0	590	209706.651007547063	2594.086084608
0	597	212562.11325712504	2855.462249578
0	608	216405.741797969698	3843.6285408447
0	614	218340.789923630676	1935.048125661
0	626	221860.986678558423	3520.1967549277
0	634	225253.33363437096	3392.3469558125
0	644	227911.43124131488	2658.0976069439
0	652	230782.619973155692	2871.1887318408
0	660	233567.675013863504	2785.0550407078
0	669	237128.428289364115	3560.7532755006
0	680	240132.064260682115	3003.635971318
0	690	243451.618747087219	3319.5544864051
0	700	247301.636576978514	3850.0178298913
0	708	249665.309170447314	2363.6725934688
0	717	252369.702311977768	2704.3931415305
0	723	254572.009499673755	2202.307187696
0	733	258019.713331363187	3447.7038316894
0	742	261465.402189851762	3445.6888584886
0	749	264101.408803439722	2636.006613588
0	755	265827.78590829114	1726.3771048514
0	763	268915.714043215873	3087.9281349247
0	774	273531.409986899259	4615.6959436834
0	781	276104.875447670953	2573.4654607717
0	790	279129.157377826074	3024.2819301551
0	798	281375.119473715337	2245.9620958893
0	806	284418.662844481902	3043.5433707666
0	820	288231.281298911224	3812.6184544293
0	827	290254.497478343571	2023.2161794323
0	840	294061.524450033928	3807.0269716904
0	850	297902.007851097758	3840.4834010638
0	863	302482.633594446841	4580.6257433491
0	872	305856.009760871555	3373.3761664247
0	881	308964.642670098718	3108.6329092272
0	890	312470.460063032832	3505.8173929341
0	898	316211.261901003335	3740.8018379705
0	910	320381.397189712179	4170.1352887088
0	920	323809.354867902612	3427.9576781904
0	927	326121.258366247666	2311.9034983451
0	936	329199.068939150338	3077.8105729027
0	944	332239.72010768487	3040.6511685345
0	954	335764.579565171179	3524.8594574863
0	962	338701.676463475478	2937.0968983043
0	969	341023.927289969315	2322.2508264938
0	977	343543.311448954072	2519.3841589848
0	989	348085.930467979078	4542.619019025
0	998	351330.079695233171	3244.1492272541
0	1009	354538.206927361925	3208.1272321288
0	1018	358314.1485358123	3775.9416084504
0	1025	360474.045074614723	2159.8965388024
0	1035	364601.911289664013	4127.8662150493
0	1042	366955.880927410936	2353.9696377469
0	1048	368865.645164041808	1909.7642366309
0	1055	371296.003239322482	2430.3580752807
0	1071	375762.621469865582	4466.6182305431
0	1081	379329.187142243638	3566.5656723781
0	1091	383741.786709311447	4412.5995670678
0	1099	386568.443946540384	2826.6572372289
0	1110	390668.604283919586	4100.1603373792
0	1117	393460.637882421753	2792.0335985022
0	1127	397595.114187849715	4134.476305428
0	1136	401261.178585724004	3666.0643978743
0	1148	404245.568406768174	2984.3898210442
0	1157	407852.04822078816	3606.47981402
0	1167	411157.013920904169	3304.965700116
0	1177	414289.839508524197	3132.82558762
0	1183	416399.85226329885	2110.0127547747
0	1190	418833.982874290119	2434.1306109913
0	1196	420991.024313704143	2157.041439414
0	1206	424152.843185188282	3161.8188714841
0	1215	427518.137322203289	3365.294137015
0	1223	430258.042764756861	2739.9054425536
0	1230	432707.506689475882	2449.463924719
0	1240	436597.114152135361	3889.6074626595
0	1249	440433.38226161435	3836.268109479
0	1257	443300.212382501958	2866.8301208876
0	1268	446400.227771862446	3100.0153893605
0	1279	450731.542545603624	4331.3147737412
0	1287	453942.322910972907	3210.7803653693
0	1292	455664.930757787115	1722.6078468142
0	1298	457709.357582777775	2044.4268249907
0	1307	460183.221191656813	2473.863608879
0	1318	463900.463736034035	3717.2425443772
0	1327	466871.648414502888	2971.1846784689
0	1335	469241.338079050219	2369.6896645473
0	1342	471345.895318128205	2104.557239078
0	1350	475085.855893464796	3739.9605753366
0	1360	478404.790078522675	3318.9341850579
0	1368	480793.397177103944	2388.6070985813
0	1377	483709.986099111885	2916.5889220079
0	1382	485678.7612492219	1968.77515011
0	1395	490306.708338693755	4627.9470894719
0	1404	493872.666255338157	3565.9579166444
0	1411	495270.144410175311	1397.4781548372
0	1419	497274.794998182956	2004.6505880076
0	1430	500970.167272654403	3695.3722744714
0	1440	504484.21411975291	3514.0468470985
0	1451	508365.274968906347	3881.0608491534
0	1458	511478.306793817361	3113.031824911
0	1466	513902.296139462893	2423.9893456455
0	1479	517240.042549255346	3337.7464097925
0	1487	519937.464109878098	2697.4215606228
0	1493	522537.512717885008	2600.0486080069
0	1502	526366.402036137921	3828.8893182529
0	1515	530384.825071273415	4018.4230351355
0	1525	534107.282075146257	3722.4570038728
0	1533	537889.047485799573	3781.7654106533
0	1543	541527.615449507766	3638.5679637082
0	1552	544960.3473001393	3432.7318506315
0	1563	548507.99303054814	3547.6457304088
0	1573	552216.634054714859	3708.6410241667
0	1582	554649.528276315004	2432.8942216001
0	1591	557912.019282463052	3262.491006148
0	1600	560605.966453766496	2693.9471713034
0	1609	564399.350799224386	3793.3843454579
0	1617	567614.23152456996	3214.8807253456
0	1626	570508.997087390209	2894.7655628202
0	1634	572813.280742499092	2304.2836551089
0	1647	576200.747272325726	3387.4665298266
0	1655	579233.886160142766	3033.138887817
0	1661	581056.418378767604	1822.5322186248
0	1672	584626.665510144131	3570.2471313765
0	1678	586424.804778071167	1798.139267927
0	1684	588372.211732529151	1947.406954458
0	1693	592481.371660670313	4109.1599281412
0	1703	596246.925631701063	3765.5539710307
0	1712	599735.905369534205	3488.9797378331
0	1721	602503.866145270926	2767.9607757367
0	1730	605759.938614070465	3256.0724687995
0	1738	608572.414422011984	2812.4758079415
0	1748	612176.732877432419	3604.3184554204
0	1755	614594.056805153427	2417.323927721
0	1765	618262.749369721909	3668.6925645685
0	1774	621998.339516669561	3735.5901469477
0	1781	624477.369174663958	2479.0296579944
0	1790	627542.440382461113	3065.0712077972
0	1800	631677.688358025675	4135.2479755646
0	1810	634810.94584625685	3133.2574882312
0	1819	637543.250545486858	2732.30469923
0	1830	641886.074159480682	4342.8236139938
0	1842	646238.49767963407	4352.4235201534
0	1850	648943.721393030188	2705.2237133961
0	1859	652703.350654919683	3759.6292618895
0	1868	655596.469362708792	2893.1187077891
0	1879	659426.580920652539	3830.1115579437
0	1892	664146.637047920429	4720.0561272679
0	1900	667068.857308267669	2922.2202603472
0	1908	670135.53964113822	3066.6823328706
0	1917	673457.361498009467	3321.8218568712
0	1927	676723.582492279874	3266.2209942704
0	1936	679377.218527765998	2653.6360354861
0	1946	683505.746827600578	4128.5282998346
0	1956	687164.082326693515	3658.3354990929
0	1964	690173.101156926769	3009.0188302333
0	1972	693503.33028514875	3330.229128222
0	1985	697155.492111272234	3652.1618261235
0	1991	699422.485034703333	2266.9929234311
0	1999	702118.822871823852	2696.3378371205
0	2013	707114.771917671953	4995.9490458481
0	2026	711114.232062315626	3999.4601446437
0	2033	712850.03278898081	1735.8007266652
0	2044	717315.774281881808	4465.741492901
0	2057	722225.529973162396	4909.7556912806
0	2065	724996.786310663505	2771.2563375011
0	2073	727231.044355966209	2234.2580453027
0	2084	730805.23887653841	3574.1945205722
0	2094	733834.79723848874	3029.5583619503
0	2100	735567.892750259547	1733.0955117708
0	2110	739091.217452636979	3523.3247023774
0	2117	741713.869131007291	2622.6516783703
0	2124	743387.381645548217	1673.5125145409
0	2130	745254.43256800069	1867.0509224525
0	2137	747907.361589255804	2652.9290212551
0	2146	750266.171915433431	2358.8103261776
0	2156	754063.050487730714	3796.8785722973
0	2163	756573.582057771335	2510.5315700406
0	2173	760456.371014728272	3882.7889569569
0	2183	764160.746597684981	3704.3755829567
0	2193	767270.259526069338	3109.5129283844
0	2204	771643.371735303725	4373.1122092344
0	2214	775724.642119067783	4081.2703837641
0	2224	779333.916130266214	3609.2740111984
0	2236	783020.722097950119	3686.8059676839
0	2246	786790.898352605354	3770.1762546552
0	2256	790532.117717270804	3741.2193646655
0	2267	794039.458708302184	3507.3409910314
0	2277	797718.260837160118	3678.8021288579
0	2282	799472.308219643377	1754.0473824833
0	2291	801979.159438493729	2506.8512188504
0	2301	804919.192196172729	2940.032757679
0	2308	806903.386162757009	1984.1939665843
0	2316	810874.362599244409	3970.9764364874
0	2323	813137.700394727357	2263.3377954829
0	2331	815113.588091544874	1975.8876968175
0	2341	819092.35606093432	3978.7679693894
0	2349	822158.956256043233	3066.6001951089
0	2357	825553.194492263787	3394.2382362206
0	2369	829906.864047981867	4353.6695557181
0	2378	834132.719316612997	4225.8552686311
0	2386	837266.822098824264	3134.1027822113
0	2393	840176.07171256102	2909.2496137368
0	2405	844281.413935264641	4105.3422227036
0	2414	847657.135299872676	3375.721364608
0	2420	849737.64749940026	2080.5121995276
0	2429	852817.082884674962	3079.4353852747
0	2438	855190.878323209543	2373.7954385346
0	2447	859055.414844327678	3864.5365211181
0	2457	862408.706103335206	3353.2912590075
0	2465	864800.594530161542	2391.8884268263
0	2474	867408.660646481511	2608.06611632
0	2482	869478.963640797956	2070.3029943164
0	2492	872788.246632926239	3309.2829921283
0	2501	876746.953485533668	3958.7068526074
0	2509	879536.879261001086	2789.9257754674
0	2521	884108.317965595125	4571.438704594
0	2532	889461.388762970529	5353.0707973754
0	2540	892727.035829471498	3265.647066501
0	2550	896015.124790719785	3288.0889612483
0	2560	899275.942439655849	3260.8176489361
0	2574	903510.057292599307	4234.1148529435
0	2581	905492.706846376025	1982.6495537767
0	2589	908749.536846787745	3256.8300004117
0	2599	912494.997831992882	3745.4609852051
0	2607	915811.507665761824	3316.5098337689
0	2614	918153.730267728757	2342.2226019669
0	2626	922303.711606934745	4149.981339206
0	2637	926738.498750631776	4434.787143697
0	2647	930454.692362342109	3716.1936117103
0	2655	933278.991528530684	2824.2991661886
0	2663	935850.342850154346	2571.3513216237
0	2669	937974.48621892844	2124.1433687741
0	2679	941406.470602867274	3431.9843839388
0	2690	944696.946420706889	3290.4758178396
0	2698	947177.816077577962	2480.8696568711
0	2705	949510.425646975717	2332.6095693978
0	2716	952967.405581078572	3456.9799341029
0	2723	956209.304574667556	3241.898993589
0	2733	960670.581071754067	4461.2764970865
0	2744	964918.795864773064	4248.214793019
0	2751	968123.560664313926	3204.7647995409
0	2761	970749.536398379213	2625.9757340653
0	2770	973667.444282351142	2917.9078839719
0	2780	977132.856592652469	3465.4123103013
0	2790	981267.507677176117	4134.6510845236
0	2798	984305.101580405689	3037.5939032296
0	2804	986257.29338375394	1952.1918033483
0	2811	989451.977846352465	3194.6844625985
0	2824	993362.072411575437	3910.094565223
0	2832	995552.471511857666	2190.3991002822
0	2837	996985.974919586524	1433.5034077289
0	2851	1001218.203079467721	4232.2281598812
0	2858	1003889.936017245136	2671.7329377774
0	2866	1006530.826377798885	2640.8903605537
0	2876	1010559.243106492877	4028.416728694
0	2886	1014229.831028916024	3670.5879224231
0	2892	1016045.813004300081	1815.9819753841
0	2899	1018951.744241779753	2905.9312374797
0	2906	1021551.89617769801	2600.1519359183
0	2915	1024456.017546798185	2904.1213691002
0	2921	1026260.831091622904	1804.8135448247
0	2927	1029088.45130754643	2827.6202159235
0	2934	1031704.68551097446	2616.234203428
0	2944	1035487.618291634218	3782.9327806598
0	2958	1039576.239044638434	4088.6207530042
0	2964	1041057.253205403769	1481.0141607653
0	2975	1046041.472773114303	4984.2195677105
0	2982	1048867.318697646344	2825.845924532
0	2992	1052071.845669415863	3204.5269717695
0	2997	1053428.014524956317	1356.1688555405
0	3006	1056244.005755474874	2815.9912305186
0	3017	1060965.54595457864	4721.5401991038
0	3028	1064816.020222054879	3850.4742674762
0	3040	1068989.359029452402	4173.3388073975
0	3052	1073685.633354331453	4696.2743248791
0	3062	1077450.364786502992	3764.7314321715
0	3072	1082065.91548437727	4615.5506978743
0	3081	1085777.69105674242	3711.7755723651
0	3091	1088251.264686347073	2473.5736296047
0	3099	1091422.6527272026	3171.3880408555
0	3109	1095299.843396362937	3877.1906691603
0	3120	1099735.245065577418	4435.4016692145
0	3130	1102900.924926647075	3165.6798610697
0	3141	1106520.675166742967	3619.7502400959
0	3151	1109347.159734671095	2826.4845679281
0	3160	1112587.593685090633	3240.4339504195
0	3167	1115598.749397718439	3011.1557126278
0	3178	1119498.119577323179	3899.3701796047
0	3187	1122238.413229468371	2740.2936521452
0	3198	1126124.353272118699	3885.9400426503
0	3210	1130449.18117958596	4324.8279074673
0	3220	1134475.441276375298	4026.2600967893
0	3229	1137169.764121086431	2694.3228447111
0	3237	1139525.996809126904	2356.2326880405
0	3248	1143360.926321335232	3834.9295122083
0	3257	1146891.274430626168	3530.3481092909
0	3267	1150154.67193331579	3263.3975026896
0	3278	1153988.735540793373	3834.0636074776
0	3287	1157207.846904290004	3219.1113634966
0	3293	1159843.239574902787	2635.3926706128
0	3304	1163540.16291950839	3696.9233446056
0	3312	1166509.413867071367	2969.250947563
0	3322	1170332.54255193761	3823.1286848662
0	3329	1173102.295185788633	2769.752633851
0	3339	1176653.285971353861	3550.9907855652
0	3348	1180882.531707594271	4229.2457362404
0	3355	1183408.260772749882	2525.7290651556
0	3363	1185585.833860351804	2177.5730876019
0	3368	1186963.192791910942	1377.3589315591
0	3377	1189634.868624480542	2671.6758325696
0	3386	1193107.191088912178	3472.3224644316
0	3393	1194787.740821298313	1680.5497323861
0	3402	1197941.464642435414	3153.7238211371
0	3413	1201827.892587636699	3886.4279452013
0	3423	1205243.416134710525	3415.5235470738
0	3431	1207543.621420813826	2300.2052861033
0	3438	1210077.772838110206	2534.1514172964
0	3448	1213797.383283753982	3719.6104456438
0	3459	1217102.485063718734	3305.1017799648
0	3470	1219820.201947912677	2717.7168841939
0	3479	1222576.353888446569	2756.1519405339
0	3485	1224813.605002057843	2237.2511136113
0	3492	1227425.057911919535	2611.4529098617
0	3499	1229281.03265818219	1855.9747462627
0	3506	1231528.278970252828	2247.2463120706
0	3515	1234639.772495906906	3111.4935256541
0	3524	1237389.554574550236	2749.7820786433
0	3533	1240726.655515283453	3337.1009407332
0	3544	1244758.977297577182	4032.3217822937
0	3553	1247702.674731239783	2943.6974336626
0	3563	1251530.213726288745	3827.538995049
0	3572	1255009.527118108341	3479.3133918196
0	3582	1258682.028077216925	3672.5009591086
0	3589	1261931.007513427282	3248.9794362104
0	3597	1265310.72664596151	3379.7191325342
0	3605	1268455.742096831197	3145.0154508697
0	3614	1271097.137131774904	2641.3950349437
0	3624	1275282.285169721687	4185.1480379468
0	3632	1279596.573277143868	4314.2881074222
0	3639	1281825.374859594846	2228.801582451
0	3645	1283777.311641792873	1951.936782198
0	3656	1287558.722234959821	3781.4105931669
0	3664	1290290.094554680507	2731.3723197207
0	3673	1294140.899012913104	3850.8044582326
0	3681	1296880.640904628779	2739.7418917157
0	3693	1300803.601616830673	3922.9607122019
0	3699	1302954.143291269536	2150.5416744389
0	3708	1305965.741206565979	3011.5979152964
0	3716	1308663.120904821079	2697.3796982551
0	3724	1311430.086596380097	2766.965691559
0	3736	1314880.350702745018	3450.2641063649
0	3744	1318559.430937213002	3679.080234468
0	3753	1320966.326474701165	2406.8955374882
0	3763	1325005.74334000714	4039.416865306
0	3769	1327475.688685057796	2469.9453450507
0	3777	1329404.498998727761	1928.81031367
0	3782	1330943.654428166449	1539.1554294387
0	3790	1333532.12604057055	2588.4716124041
0	3800	1337715.769026428574	4183.642985858
0	3807	1340208.199426042961	2492.4303996144
0	3817	1344135.707442951503	3927.5080169085
0	3831	1348823.950358131084	4688.2429151796
0	3843	1352886.852329154615	4062.9019710235
0	3848	1354534.687862265972	1647.8355331114
0	3858	1358549.797542602872	4015.1096803369
0	3863	1359845.703061041539	1295.9055184387
0	3872	1362571.239741565776	2725.5366805242
0	3877	1364530.013524834183	1958.7737832684
0	3889	1368613.588977721637	4083.5754528875
0	3896	1370419.864575821092	1806.2755980995
0	3906	1374342.609254596873	3922.7446787758
0	3917	1378244.689902453801	3902.0806478569
0	3926	1381485.968647082454	3241.2787446287
0	3937	1385868.335094885087	4382.3664478026
0	3946	1389145.713465032286	3277.3783701472
0	3952	1390608.200901956417	1462.4874369241
0	3964	1394913.264495832965	4305.0635938765
0	3972	1398538.39339655836	3625.1289007254
0	3979	1400986.891522072375	2448.498125514
0	3991	1405338.42957727623	4351.5380552039
0	3997	1406801.495804521374	1463.0662272451
0	4005	1409826.103069167704	3024.6072646463
0	4017	1413220.444790809535	3394.3417216418
0	4024	1415276.830046321385	2056.3852555119
0	4030	1416680.819027102672	1403.9889807813
0	4040	1420719.040336506561	4038.2213094039
0	4047	1422498.194945091502	1779.1546085849
0	4055	1424678.174966736817	2179.9800216453
0	4064	1428481.754266773471	3803.5793000367
0	4073	1431922.466647904486	3440.712381131
0	4078	1433602.956190891683	1680.4895429872
0	4088	1437104.408039990932	3501.4518490992
0	4097	1440211.553984228642	3107.1459442377
0	4106	1443668.250010348978	3456.6960261203
0	4112	1446086.456851428496	2418.2068410795
0	4120	1448872.980616008985	2786.5237645805
0	4130	1452084.117354406166	3211.1367383972
0	4139	1454835.156084294554	2751.0387298884
0	4146	1457261.657572235104	2426.5014879405
0	4155	1459572.087359475095	2310.42978724
0	4163	1462027.136696339709	2455.0493368646
0	4171	1465605.921662226444	3578.7849658867
0	4178	1468263.245009724176	2657.3233474977
0	4186	1470618.268309626854	2355.0232999027
0	4195	1473363.542621350042	2745.2743117232
0	4205	1477809.329981636382	4445.7873602863
0	4214	1481285.709751350931	3476.3797697145
0	4222	1483616.742985113649	2331.0332337627
0	4230	1486279.95997772099	2663.2169926073
0	4237	1488734.318545879922	2454.3585681589
0	4247	1491698.227387690111	2963.9088418102
0	4255	1494823.085847823076	3124.858460133
0	4266	1499409.310177923307	4586.2243301002
0	4272	1501028.556142235301	1619.245964312
0	4282	1504655.455498234496	3626.8993559992
0	4289	1507012.860019994096	2357.4045217596
0	4297	1509241.804026696028	2228.9440067019
0	4305	1512419.762503146322	3177.9584764503
0	4316	1516530.028144363442	4110.2656412171
0	4324	1519235.342477308715	2705.3143329453
0	4336	1523529.418462375308	4294.0759850666
0	4344	1526446.719856630209	2917.3013942549
0	4354	1530733.960042731034	4287.2401861008
0	4365	1534967.189229559283	4233.2291868282
0	4375	1537669.463542616125	2702.2743130568
0	4385	1542162.717994605322	4493.2544519892
0	4392	1544447.550728148913	2284.8327335436
0	4399	1547006.938461237719	2559.3877330888
0	4407	1550195.365867344794	3188.4274061071
0	4417	1554025.759389368018	3830.3935220232
0	4425	1556681.398589001169	2655.6391996332
0	4430	1558851.14225400625	2169.7436650051
0	4439	1561461.693531274929	2610.5512772687
0	4448	1564485.542643698997	3023.8491124241
0	4455	1567084.917525504849	2599.3748818059
0	4465	1570755.518275383062	3670.6007498782
0	4476	1574864.408124983445	4108.8898496004
0	4483	1577529.194137919829	2664.7860129364
0	4492	1580551.159015274742	3021.9648773549
0	4503	1584983.574224612811	4432.4152093381
0	4513	1588706.30858985255	3722.7343652397
0	4521	1591924.316578125716	3218.0079882732
0	4531	1596102.137665869804	4177.8210877441
0	4538	1598417.475937865811	2315.338271996
0	4545	1600948.719174228745	2531.2432363629
0	4554	1604468.868124368737	3520.14895014
0	4563	1608149.807671015287	3680.9395466465
0	4573	1612110.505219688775	3960.6975486735
0	4583	1615733.968258719097	3623.4630390303
0	4591	1617898.906860826674	2164.9386021076
0	4598	1621024.653732148137	3125.7468713215
0	4609	1624312.317989696886	3287.6642575487
0	4617	1628096.792762540419	3784.4747728435
0	4626	1631626.784157590147	3529.9913950497
0	4638	1635775.122401048567	4148.3382434584
0	4649	1639868.981499876965	4093.8590988284
0	4656	1642138.115803641405	2269.1343037644
0	4668	1645638.520685280812	3500.4048816394
0	4677	1649044.165851432038	3405.6451661512
0	4683	1650750.116641726485	1705.9507902944
0	4691	1654467.135926080077	3717.0192843536
0	4703	1657908.25946959681	3441.1235435167
0	4712	1661097.223997139513	3188.9645275427
0	4719	1664237.597307306856	3140.3733101673
0	4727	1667262.366728251942	3024.7694209451
0	4735	1670788.27805835768	3525.9113301057
0	4743	1672571.344155050026	1783.0660966923
0	4751	1675184.084381000282	2612.7402259503
0	4758	1677632.398342830272	2448.31396183
0	4764	1679591.257525817635	1958.8591829874
0	4771	1681597.187498537968	2005.9299727203
0	4779	1684461.377333197887	2864.1898346599
0	4786	1687258.410732750925	2797.033399553
0	4795	1689777.749207220184	2519.3384744693
0	4805	1693741.464704135577	3963.7154969154
0	4817	1697519.44723266657	3777.982528531
0	4826	1700208.051489712815	2688.6042570462
0	4833	1701949.778262782056	1741.7267730692
0	4842	1704402.77260181043	2452.9943390284
0	4852	1708318.262345600088	3915.4897437897
0	4862	1711444.518548506458	3126.2562029064
0	4869	1714463.472361955938	3018.9538134495
0	4876	1717228.883035853652	2765.4106738977
0	4882	1719886.050620698517	2657.1675848449
0	4892	1724229.064970486945	4343.0143497884
0	4900	1727102.53261013437	2873.4676396474
0	4909	1730524.780964758396	3422.248354624
0	4916	1732416.745776333995	1891.9648115756
0	4928	1737098.375987727344	4681.6302113933
0	4939	1740819.322584173791	3720.9465964464
0	4949	1744029.905982152707	3210.5833979789
0	4957	1745906.250790623165	1876.3448084705
0	4965	1748522.170318197608	2615.9195275744
0	4975	1752227.56854398191	3705.3982257843
0	4982	1754767.404842516556	2539.8362985346
0	4991	1758581.400116044246	3813.9952735277
0	4998	1760308.501927578039	1727.1018115338
0	5007	1764100.872032018528	3792.3701044405
0	5014	1766405.704168486558	2304.832136468
0	5024	1769577.254354464971	3171.5501859784
0	5033	1773541.432378417962	3964.178023953
0	5046	1777785.167824058013	4243.7354456401
0	5053	1780262.064199336025	2476.896375278
0	5065	1784075.633765780519	3813.5695664445
0	5076	1789044.962478429232	4969.3287126487
0	5084	1791690.252055716854	2645.2895772876
0	5095	1795732.82085747939	4042.5688017625
0	5103	1799070.973887364534	3338.1530298851
1	8	3895.184672414325	3895.1846724143
1	20	7818.183015170507	3922.9983427562
1	29	11619.886104413308	3801.7030892428
1	40	15964.50993118342	4344.6238267701
1	47	19021.375633310527	3056.8657021271
1	58	22578.1893982552	3556.8137649447
1	69	25889.024267625064	3310.8348693699
1	75	27926.752108661459	2037.7278410364
1	87	32146.691801631824	4219.9396929704
1	95	34819.99448442366	2673.3026827918
1	106	38969.596396177076	4149.6019117534
1	112	41404.538283892908	2434.9418877158
1	120	43634.976323274896	2230.438039382
1	128	45979.906955058688	2344.9306317838
1	139	49674.973996588963	3695.0670415303
1	145	52678.813036275099	3003.8390396861
1	152	54738.543979777026	2059.7309435019
1	158	56441.140697035011	1702.596717258
1	164	58535.731191071685	2094.5904940367
1	176	63147.177650942471	4611.4464598708
1	186	66609.579948568721	3462.4022976262
1	195	69047.708356473599	2438.1284079049
1	206	72621.936339698737	3574.2279832251
1	215	76373.283670423557	3751.3473307248
1	226	80749.159770319244	4375.8760998957
1	237	85514.114340394742	4764.9545700755
1	244	88394.598074792892	2880.4837343981
1	255	91875.371477496818	3480.7734027039
1	262	94425.704370159663	2550.3328926628
1	269	96507.408961420886	2081.7045912612
1	284	101033.395890472464	4525.9869290516
1	294	104748.703964240856	3715.3080737684
1	302	108274.675492825925	3525.9715285851
1	311	111613.766582007526	3339.0910891816
1	318	113444.57102869638	1830.8044466889
1	329	117320.400727889507	3875.8296991931
1	334	119124.052451178438	1803.6517232889
1	341	121709.650996886201	2585.5985457078
1	349	123841.087827016607	2131.4368301304
1	357	127013.08495737613	3171.9971303595
1	367	130212.753533944496	3199.6685765684
1	374	133731.018427480021	3518.2648935355
1	383	136638.298699096786	2907.2802716168
1	394	140431.103973090659	3792.8052739939
1	403	143391.279498115192	2960.1755250245
1	412	146434.392636618587	3043.1131385034
1	422	150411.013906309392	3976.6212696908
1	432	153649.029820854787	3238.0159145454
1	440	156786.26812216827	3137.2383013135
1	451	161007.445263443527	4221.1771412753
1	459	164073.004637123098	3065.5593736796
1	466	166259.338370477794	2186.3337333547
1	474	169076.968338852762	2817.629968375
1	485	172701.465821033357	3624.4974821806
1	493	175306.050646584495	2604.5848255511
1	501	177294.206698634676	1988.1560520502
1	507	179526.768263848512	2232.5615652138
1	516	182753.53973899038	3226.7714751419
1	523	184547.561639710343	1794.02190072
1	532	187953.187793958946	3405.6261542486
1	542	191967.635950050332	4014.4481560914
1	551	195555.631980369815	3587.9960303195
1	560	199221.85595501216	3666.2239746423
1	570	202876.514573371987	3654.6586183598
1	579	206783.832215121966	3907.31764175
1	588	209348.031672276575	2564.1994571546
1	596	212047.504074359331	2699.4724020828
1	604	215544.721804722231	3497.2177303629
1	615	218566.555043938589	3021.8332392164
1	620	220304.817338241284	1738.2622943027
1	625	221678.924980550093	1374.1076423088
1	633	224593.902728939449	2914.9777483894
1	640	227288.622369105017	2694.7196401656
1	650	229788.334199250696	2499.7118301457
1	662	234232.514136820121	4444.1799375694
1	671	237429.393445816843	3196.8793089967
1	682	240495.738678099608	3066.3452322828
1	689	243352.134767035043	2856.3960889354
1	698	246282.911799056476	2930.7770320214
1	710	250131.005361559822	3848.0935625033
1	718	252476.755735441133	2345.7503738813
1	727	255698.795134853594	3222.0393994125
1	735	258726.85513906183	3028.0600042082
1	743	261467.725556250683	2740.8704171889
1	752	264512.865880387857	3045.1403241372
1	762	268574.808978801615	4061.9430984138
1	773	273357.057107565947	4782.2481287643
1	782	276420.341588719771	3063.2844811538
1	794	280260.198735888139	3839.8571471684
1	802	282786.877072183438	2526.6783362953
1	808	284888.107203505956	2101.2301313225
1	818	287881.09919226265	2992.9919887567
1	828	290391.006907727592	2509.9077154649
1	833	291885.430881078378	1494.4239733508
1	843	295350.329431006708	3464.8985499283
1	851	298409.031543158949	3058.7021121522
1	857	300762.912840885133	2353.8812977262
1	867	303792.73173962722	3029.8188987421
1	878	308039.512799377576	4246.7810597504
1	886	311319.616759428777	3280.1039600512
1	892	313477.186515787639	2157.5697563589
1	901	317394.435990205988	3917.2494744183
1	911	320425.578855257503	3031.1428650515
1	919	323687.180858245141	3261.6020029876
1	928	326368.020940921291	2680.8400826761
1	937	329528.681460628308	3160.660519707
1	946	332661.322179785952	3132.6407191576
1	952	335231.810599495679	2570.4884197097
1	963	339179.114104737551	3947.3035052419
1	972	341853.498611832061	2674.3845070945
1	981	345139.621909218864	3286.1232973868
1	988	347620.837207138562	2481.2152979197
1	994	349649.728611856723	2028.8914047182
1	1002	352097.808888671013	2448.0802768143
1	1010	355218.033547047551	3120.2246583765
1	1021	359240.264837024759	4022.2312899772
1	1030	362992.772511974935	3752.5076749502
1	1038	365727.068923227516	2734.2964112526
1	1049	369176.505714794647	3449.4367915671
1	1057	371450.829912442741	2274.3241976481
1	1063	373256.00247653204	1805.1725640893
1	1068	374901.996701443596	1645.9942249116
1	1075	377167.58115396372	2265.5844525201
1	1082	379498.483704426354	2330.9025504626
1	1089	382575.106919277487	3076.6232148511
1	1100	386669.449616549565	4094.3426972721
1	1108	390015.711993165343	3346.2623766158
1	1115	392552.228177944226	2536.5161847789
1	1126	397182.234886824182	4630.00670888
1	1134	399830.889257951669	2648.6543711275
1	1140	402214.347438979924	2383.4581810283
1	1146	403802.774170367077	1588.4267313872
1	1156	407670.740202697956	3867.9660323309
1	1166	410707.679371023582	3036.9391683256
1	1174	413363.030741689759	2655.3513706662
1	1184	417063.341528037596	3700.3107863478
1	1193	420133.55380862489	3070.2122805873
1	1202	423264.95799031112	3131.4041816862
1	1213	426365.827686642331	3100.8696963312
1	1222	430041.819271864405	3675.9915852221
1	1234	434615.667328331655	4573.8480564672
1	1242	437311.606202228031	2695.9388738964
1	1250	441032.364051835647	3720.7578496076
1	1259	443803.982646809927	2771.6185949743
1	1265	445333.335758652575	1529.3531118426
1	1274	448203.617205354422	2870.2814467018
1	1284	452803.079887130335	4599.4626817759
1	1293	456020.776869775766	3217.6969826454
1	1303	459275.888608675489	3255.1117388997
1	1310	461697.906568064393	2422.0179593889
1	1322	465440.315015707204	3742.4084476428
1	1329	467610.554994852321	2170.2399791451
1	1336	470069.759921100961	2459.2049262486
1	1347	473483.080260129685	3413.3203390287
1	1356	476714.521105634088	3231.4408455044
1	1365	479901.025700010399	3186.5045943763
1	1373	482583.1915605348	2682.1658605244
1	1384	486303.328680270392	3720.1371197356
1	1390	489143.619698728475	2840.2910184581
1	1397	491630.664649768773	2487.0449510403
1	1408	494878.43865165491	3247.7740018861
1	1416	496126.091239694547	1247.6525880396
1	1427	500155.303166527342	4029.2119268328
1	1437	503147.140222974163	2991.8370564468
1	1444	505305.81522441939	2158.6750014452
1	1455	510347.934038937134	5042.1188145177
1	1467	513907.601721421858	3559.6676824847
1	1476	516666.027156100651	2758.4254346788
1	1484	519275.666396739004	2609.6392406384
1	1494	522828.039188752925	3552.3727920139
1	1503	526452.480522310405	3624.4413335575
1	1510	529430.170586169741	2977.6900638593
1	1519	532122.394940746061	2692.2243545763
1	1529	536151.509618293538	4029.1146775475
1	1536	539064.398427726746	2912.8888094332
1	1544	541823.508747015194	2759.1103192884
1	1553	545081.052826205315	3257.5440791901
1	1561	547749.326066393451	2668.2732401881
1	1569	550518.464921764144	2769.1388553707
1	1579	553341.63210005504	2823.1671782909
1	1587	556662.4110229081	3320.7789228531
1	1594	559429.854078521067	2767.443055613
1	1604	562042.996074934536	2613.1419964135
1	1613	566154.654110223101	4111.6580352886
1	1623	569795.221673673997	3640.5675634509
1	1629	571294.64009448425	1499.4184208103
1	1637	574072.566277300987	2777.9261828167
1	1648	576482.807714073035	2410.241436772
1	1659	580091.681589628617	3608.8738755556
1	1671	584582.15434150775	4490.4727518791
1	1679	587174.238098412799	2592.083756905
1	1689	590471.892719809012	3297.6546213962
1	1698	594385.629583778838	3913.7368639698
1	1707	597668.185721291277	3282.5561375124
1	1716	600952.255874290179	3284.0701529989
1	1725	604134.71225146209	3182.4563771719
1	1732	606787.903526751373	2653.1912752893
1	1741	609952.232194296133	3164.3286675448
1	1752	613779.584773024593	3827.3525787285
1	1763	617404.541869531435	3624.9570965068
1	1772	621065.77426297595	3661.2323934445
1	1784	625295.384973473895	4229.6107104979
1	1792	627853.8613820449	2558.476408571
1	1801	632056.46894071256	4202.6075586677
1	1813	635626.633301493761	3570.1643607812
1	1821	638688.342139218051	3061.7088377243
1	1831	642008.220666158062	3319.87852694
1	1839	644975.700792088222	2967.4801259302
1	1849	648914.105198252995	3938.4044061648
1	1857	652129.056713311051	3214.9515150581
1	1863	653960.094488435474	1831.0377751244
1	1876	658484.739151038279	4524.6446626028
1	1886	661491.06233047792	3006.3231794396
1	1894	664528.111745626715	3037.0494151488
1	1905	669040.743139456076	4512.6313938294
1	1914	672086.343008419549	3045.5998689635
1	1921	674773.970207967845	2687.6271995483
1	1932	678856.114743207631	4082.1445352398
1	1943	682217.825944558768	3361.7112013511
1	1951	685728.130819508857	3510.3048749501
1	1961	688757.231382862716	3029.1005633539
1	1968	691833.965304493956	3076.7339216312
1	1977	695068.812437402137	3234.8471329082
1	1983	696730.937305977622	1662.1248685755
1	1994	700022.916915477308	3291.9796094997
1	2001	703037.157826800886	3014.2409113236
1	2009	705615.64304104546	2578.4852142446
1	2018	707900.339056318681	2284.6960152732
1	2024	710266.344259749223	2366.0052034305
1	2034	713264.752628398185	2998.408368649
1	2042	716713.626371556951	3448.8737431588
1	2053	720746.61647826439	4032.9901067074
1	2058	722382.269770768529	1635.6532925041
1	2067	725545.974286180048	3163.7045154115
1	2074	727900.839572888857	2354.8652867088
1	2079	729270.531060034467	1369.6914871456
1	2088	731913.694666419236	2643.1636063848
1	2098	735234.638404729834	3320.9437383106
1	2107	737642.887226678489	2408.2488219487
1	2115	740709.283328731602	3066.3961020531
1	2127	744178.38707459165	3469.10374586
1	2141	748592.090676608555	4413.7036020169
1	2145	750229.723575571611	1637.6328989631
1	2157	754572.858315333784	4343.1347397622
1	2167	758374.885597731979	3802.0272823982
1	2175	761397.201717691556	3022.3161199596
1	2182	763641.923470026873	2244.7217523353
1	2192	766963.129590894155	3321.2061208673
1	2200	770024.91404840263	3061.7844575085
1	2211	774809.205869562053	4784.2918211594
1	2221	778154.770211060592	3345.5643414985
1	2229	780866.131429863223	2711.3612188026
1	2239	783993.13042969449	3126.9989998313
1	2252	789310.872748517493	5317.742318823
1	2259	791671.690634451868	2360.8178859344
1	2268	795068.856942909831	3397.166308458
1	2276	797417.909747525179	2349.0528046153
1	2287	801176.337184198262	3758.4274366731
1	2295	803094.31871250278	1917.9815283045
1	2304	806046.715445816579	2952.3967333138
1	2313	809733.153829327848	3686.4383835113
1	2325	813729.750456358369	3996.5966270305
1	2333	816098.517586290899	2368.7671299325
1	2343	819372.664826712634	3274.1472404217
1	2352	823258.179089985851	3885.5142632732
1	2362	827051.167979696829	3792.988889711
1	2368	829881.234423327323	2830.0664436305
1	2377	833784.719370002922	3903.4849466756
1	2383	836596.297532692615	2811.5781626897
1	2395	840406.626850599487	3810.3293179069
1	2404	843387.160169519549	2980.5333189201
1	2412	846716.910771746253	3329.7506022267
1	2425	851392.872514366237	4675.96174262
1	2433	853454.8663059483	2061.9937915821
1	2443	857325.265556923179	3870.3992509749
1	2450	860595.620056707478	3270.3544997843
1	2461	863639.956904877974	3044.3368481705
1	2467	865173.132299375786	1533.1753944978
1	2479	868425.650695944271	3252.5183965685
1	2486	871215.863916557348	2790.2132206131
1	2498	875340.439446014418	4124.5755294571
1	2508	879448.962466162695	4108.5230201483
1	2515	882326.019267831064	2877.0568016684
1	2522	884134.155542263828	1808.1362744328
1	2530	887906.570469494977	3772.4149272311
1	2538	891800.373745244064	3893.8032757491
1	2548	895055.287728505277	3254.9139832612
1	2556	897970.177574479089	2914.8898459738
1	2564	900434.600667120026	2464.4230926409
1	2570	902115.058677387492	1680.4580102675
1	2577	904280.23062259897	2165.1719452115
1	2588	907879.578257049502	3599.3476344505
1	2596	911490.029562078485	3610.451305029
1	2601	913342.822927306474	1852.793365228
1	2611	917489.258706453325	4146.4357791469
1	2619	919863.276342605309	2374.017636152
1	2627	922432.620082120479	2569.3437395152
1	2633	925218.846663180807	2786.2265810603
1	2644	928913.048977288486	3694.2023141077
1	2654	933002.631156239728	4089.5821789512
1	2662	935583.089312980953	2580.4581567412
1	2673	939346.950952615659	3763.8616396347
1	2685	942548.405691096629	3201.454738481
1	2693	945823.610120010632	3275.204428914
1	2703	948937.180868466454	3113.5707484558
1	2712	951954.54211262993	3017.3612441635
1	2721	954807.545239641401	2853.0031270115
1	2730	959049.751934409211	4242.2066947678
1	2739	963429.539350583288	4379.7874161741
1	2750	967922.576935147005	4493.0375845637
1	2758	969977.352008549566	2054.7750734026
1	2768	973373.785394663061	3396.4333861135
1	2776	976048.25216664474	2674.4667719817
1	2783	978155.076715070824	2106.8245484261
1	2792	982079.161531291971	3924.0848162211
1	2806	986878.838814538973	4799.677283247
1	2817	990618.118636845681	3739.2798223067
1	2822	992457.652586675319	1839.5339498296
1	2829	994803.504640725512	2345.8520540502
1	2839	997377.094571362321	2573.5899306368
1	2845	998948.089293181037	1570.9947218187
1	2850	1000789.171339664681	1841.0820464836
1	2861	1005032.247272366731	4243.075932702
1	2873	1008982.962627452871	3950.7153550861
1	2880	1012314.240711391976	3331.2780839391
1	2887	1014334.484158409832	2020.2434470179
1	2898	1017982.475158595553	3647.9910001857
1	2908	1021984.079109784289	4001.6039511887
1	2918	1025649.540766049249	3665.461656265
1	2931	1030515.214329119845	4865.6735630706
1	2939	1034018.668495095409	3503.4541659756
1	2947	1036194.535221741609	2175.8667266462
1	2953	1038143.972323089913	1949.4371013483
1	2963	1040926.244647731149	2782.2723246412
1	2973	1044701.41786371831	3775.1732159872
1	2984	1049469.369246019128	4767.9513823008
1	2996	1052904.795337189066	3435.4260911699
1	3005	1056072.082354500968	3167.2870173119
1	3015	1059672.938266326752	3600.8559118258
1	3021	1062481.598006445062	2808.6597401183
1	3030	1065427.665287721981	2946.0672812769
1	3039	1068942.076343880113	3514.4110561581
1	3047	1072012.06608074725	3069.9897368671
1	3057	1075862.033539591435	3849.9674588442
1	3064	1078895.747089292932	3033.7135497015
1	3071	1081719.275329238813	2823.5282399459
1	3080	1085061.355397407975	3342.0800681692
1	3089	1088178.461048682298	3117.1056512743
1	3100	1091962.825488089662	3784.3644394074
1	3108	1095173.290939070363	3210.4654509807
1	3119	1099239.266093331468	4065.9751542611
1	3129	1102273.927332088431	3034.661238757
1	3138	1105170.121110091065	2896.1937780026
1	3148	1108450.173563347278	3280.0524532562
1	3155	1110908.585880417457	2458.4123170702
1	3166	1115180.402056407264	4271.8161759898
1	3173	1117830.907738837494	2650.5056824302
1	3180	1120019.038909161544	2188.131170324
1	3188	1122593.97962819793	2574.9407190364
1	3197	1125907.340899924828	3313.3612717269
1	3205	1127924.600554606958	2017.2596546821
1	3212	1131472.354474081739	3547.7539194748
1	3221	1134640.551766776561	3168.1972926948
1	3230	1137326.05408995886	2685.5023231823
1	3241	1140233.233981649472	2907.1798916906
1	3250	1143686.665105610235	3453.4311239608
1	3260	1148050.382054247974	4363.7169486377
1	3268	1150330.045002792111	2279.6629485441
1	3276	1153007.16786752463	2677.1228647325
1	3284	1155970.792272244661	2963.62440472
1	3294	1159946.677440404973	3975.8851681603
1	3305	1163648.475715261966	3701.798274857
1	3313	1167006.298845447682	3357.8231301857
1	3320	1170143.961062561802	3137.6622171141
1	3331	1173727.166251628741	3583.2051890669
1	3338	1175989.001515531063	2261.8352639023
1	3346	1179634.406472626224	3645.4049570952
1	3356	1183543.225106131368	3908.8186335051
1	3369	1187002.559619862668	3459.3345137313
1	3378	1190250.63452892945	3248.0749090668
1	3388	1193353.36754084573	3102.7330119163
1	3397	1196113.289475627327	2759.9219347816
1	3408	1200087.973721372047	3974.6842457447
1	3418	1204266.835515643554	4178.8617942715
1	3428	1206737.656681216406	2470.8211655729
1	3436	1209653.702946589412	2916.046265373
1	3446	1213154.561200481923	3500.8582538925
1	3454	1215848.515331908213	2693.9541314263
1	3460	1217425.549028464676	1577.0336965565
1	3468	1219762.464065803298	2336.9150373386
1	3476	1222102.280607540243	2339.8165417369
1	3486	1225276.674586767414	3174.3939792272
1	3497	1228644.318763562562	3367.6441767951
1	3505	1231506.512951594861	2862.1941880323
1	3514	1234224.384066299619	2717.8711147048
1	3521	1236605.044078873554	2380.6600125739
1	3527	1238183.88262863745	1578.8385497639
1	3536	1241884.643513057466	3700.76088442
1	3545	1245188.159732404251	3303.5162193468
1	3552	1247375.709395273674	2187.5496628694
1	3561	1250489.307582937266	3113.5981876636
1	3568	1254019.075217144649	3529.7676342074
1	3576	1256332.634929264981	2313.5597121203
1	3584	1259611.095763882708	3278.4608346177
1	3593	1264208.125292323615	4597.0295284409
1	3601	1266989.137959410522	2781.0126670869
1	3608	1268936.938454350543	1947.80049494
1	3616	1271967.14596780957	3030.207513459
1	3626	1276546.965232375165	4579.8192645656
1	3636	1280831.939774332656	4284.9745419575
1	3647	1285064.27003208091	4232.3302577483
1	3655	1287512.096252362333	2447.8262202814
1	3665	1290415.949447010734	2903.8531946484
1	3674	1294158.024970698261	3742.0755236875
1	3683	1297957.54997455524	3799.525003857
1	3691	1300343.896789569498	2386.3468150143
1	3700	1303366.924638580622	3023.0278490111
1	3709	1306373.585820011886	3006.6611814313
1	3718	1309374.369819089862	3000.783999078
1	3727	1312002.024869201797	2627.6550501119
1	3734	1314001.333768107089	1999.3088989053
1	3743	1318127.495041187014	4126.1612730799
1	3754	1321403.210419043991	3275.715377857
1	3761	1324796.979005006234	3393.7685859622
1	3778	1329427.237907541077	4630.2589025348
1	3787	1333118.990411027427	3691.7525034863
1	3796	1336008.084687008615	2889.0942759812
1	3806	1340030.534530221578	4022.449843213
1	3816	1343598.068057117146	3567.5335268956
1	3824	1346459.071730612871	2861.0036734957
1	3830	1348792.824603477586	2333.7528728647
1	3837	1351115.256027854141	2322.4314243766
1	3850	1355101.865397929308	3986.6093700752
1	3859	1358681.066514481885	3579.2011165526
1	3873	1363167.339126812389	4486.2726123305
1	3883	1366723.754060198647	3556.4149333863
1	3888	1368590.930536924956	1867.1764767263
1	3897	1370580.670412094427	1989.7398751695
1	3905	1374154.125320166445	3573.454908072
1	3916	1377885.00014331667	3730.8748231502
1	3923	1380759.583914745695	2874.583771429
1	3932	1383417.410190403558	2657.8262756579
1	3939	1386249.31590822535	2831.9057178218
1	3948	1389306.304690218627	3056.9887819933
1	3958	1392772.015773458503	3465.7110832399
1	3965	1395635.361581202693	2863.3458077442
1	3973	1398639.665213017821	3004.3036318151
1	3982	1402009.216936701074	3369.5517236833
1	3992	1405372.805888671525	3363.5889519705
1	4001	1408280.983175151147	2908.1772864796
1	4012	1411819.217644608677	3538.2344694575
1	4018	1413609.623257373558	1790.4056127649
1	4029	1416468.735461169952	2859.1122037964
1	4038	1420242.606156994687	3773.8706958247
1	4044	1421664.886299055168	1422.2801420605
1	4054	1424358.416549954662	2693.5302508995
1	4065	1428573.267119424517	4214.8505694699
1	4074	1432194.464548886854	3621.1974294623
1	4086	1436475.395005568962	4280.9304566821
1	4093	1439027.083164663153	2551.6881590942
1	4103	1442287.802048935654	3260.7188842725
1	4113	1446176.249357359583	3888.4473084239
1	4123	1449517.567120073463	3341.3177627139
1	4132	1452732.019088720071	3214.4519686466
1	4141	1455665.716093964975	2933.6970052449
1	4156	1459685.625189892117	4019.9090959271
1	4166	1463333.132615033638	3647.5074251415
1	4176	1467855.371587956425	4522.2389729228
1	4185	1470463.807137007926	2608.4355490515
1	4194	1473323.52849841128	2859.7213614034
1	4203	1476824.908585497279	3501.380087086
1	4209	1479377.934687025947	2553.0261015287
1	4219	1482909.719905397026	3531.7852183711
1	4229	1486003.879284393145	3094.1593789961
1	4239	1489175.52243859983	3171.6431542067
1	4246	1491205.296202423152	2029.7737638233
1	4257	1495477.440198487703	4272.1439960646
1	4267	1499790.256693773072	4312.8164952854
1	4277	1502394.837347581152	2604.5806538081
1	4286	1505932.143546757389	3537.3061991762
1	4296	1509200.948286429148	3268.8047396718
1	4307	1513737.442607944933	4536.4943215158
1	4315	1516213.107791310278	2475.6651833653
1	4326	1519587.447897554477	3374.3401062442
1	4334	1523365.779506159117	3778.3316086046
1	4342	1525970.176205132258	2604.3966989731
1	4352	1530068.217572942478	4098.0413678102
1	4358	1532419.327391940271	2351.1098189978
1	4369	1536129.624037561109	3710.2966456208
1	4376	1538302.155186887933	2172.5311493268
1	4383	1541209.078901773421	2906.9237148855
1	4394	1545570.310021005674	4361.2311192323
1	4403	1548832.026264793344	3261.7162437877
1	4412	1552158.852791902714	3326.8265271094
1	4422	1555811.562972958305	3652.7101810556
1	4433	1559508.002784429224	3696.4398114709
1	4443	1562673.649963759923	3165.6471793307
1	4451	1565533.258072729329	2859.6081089694
1	4460	1569589.241809467891	4055.9837367386
1	4467	1571904.80148803919	2315.5596785713
1	4480	1576671.175529225836	4766.3740411866
1	4493	1581182.653499138648	4511.4779699128
1	4502	1584849.51655163906	3666.8630525004
1	4514	1588886.504096584501	4036.9875449454
1	4523	1592791.099356953161	3904.5952603687
1	4532	1596104.52137093536	3313.4220139822
1	4542	1600221.86044331185	4117.3390723765
1	4553	1604018.186171818631	3796.3257285068
1	4562	1607903.50801174074	3885.3218399221
1	4571	1611403.697586036395	3500.1895742957
1	4582	1615212.660412397344	3808.9628263609
1	4593	1619186.452589999061	3973.7921776017
1	4604	1622724.607732077238	3538.1551420782
1	4611	1625315.785905020421	2591.1781729432
1	4618	1628334.264875971821	3018.4789709514
1	4628	1631852.026737970409	3517.7618619986
1	4634	1634390.801146463601	2538.7744084932
1	4642	1636890.303064067958	2499.5019176044
1	4652	1640605.591376801132	3715.2883127332
1	4662	1644081.769531360007	3476.1781545589
1	4669	1645995.793206710479	1914.0236753505
1	4675	1648515.750231407694	2519.9570246972
1	4685	1651974.844972766115	3459.0947413584
1	4696	1656137.38797758717	4162.5430048211
1	4702	1657483.201276045403	1345.8132984582
1	4710	1660611.515896953753	3128.3146209083
1	4721	1664724.575256882347	4113.0593599286
1	4732	1669142.528164247162	4417.9529073648
1	4741	1672261.478206515423	3118.9500422683
1	4750	1675011.159466928914	2749.6812604135
1	4759	1678073.29459078621	3062.1351238573
1	4769	1681150.478908745683	3077.1843179595
1	4778	1684324.811022891774	3174.3321141461
1	4788	1687890.86891678173	3566.05789389
1	4798	1691216.351042501739	3325.48212572
1	4806	1694346.412607445492	3130.0615649438
1	4814	1696778.869460290408	2432.4568528449
1	4820	1698213.050777139252	1434.1813168488
1	4830	1701316.800036491005	3103.7492593518
1	4838	1703420.009509543999	2103.209473053
1	4847	1706801.808058843128	3381.7985492991
1	4858	1710535.740868840479	3733.9328099974
1	4871	1715631.807261658945	5096.0663928185
1	4884	1720604.166182829181	4972.3589211702
1	4894	1724786.911526578592	4182.7453437494
1	4902	1727601.491067186112	2814.5795406075
1	4912	1731261.63739683118	3660.1463296451
1	4920	1734146.283144643645	2884.6457478125
1	4927	1735981.384558975812	1835.1014143322
1	4934	1738725.254592136596	2743.8700331608
1	4942	1742025.826312811231	3300.5717206746
1	4952	1744824.690789054266	2798.864476243
1	4960	1746502.883465308815	1678.1926762545
1	4970	1750249.678187677756	3746.7947223689
1	4979	1754057.870430406303	3808.1922427285
1	4985	1756156.577609223434	2098.7071788171
1	4997	1760068.322873627888	3911.7452644045
1	5006	1763410.416878108056	3342.0940044802
1	5015	1766772.767165349917	3362.3502872419
1	5026	1770266.564262332516	3493.7970969826
1	5034	1773543.955156440037	3277.3908941075
1	5041	1775768.643917818676	2224.6887613786
1	5055	1780786.413591052529	5017.7696732339
1	5060	1782283.417428983499	1497.003837931
1	5069	1785999.087753589388	3715.6703246059
1	5079	1789930.878509511363	3931.790755922
1	5086	1792843.947729980697	2913.0692204693
1	5093	1795302.981426869642	2459.0336968889
1	5102	1798411.042829998893	3108.0614031293
2	9	4260.496475477704	4260.4964754777
2	18	7628.865091782065	3368.3686163044
2	27	10675.073575624267	3046.2084838422
2	33	12764.224069565538	2089.1504939413
2	45	17769.250444136563	5005.026374571
2	54	21453.511112462732	3684.2606683262
2	65	24952.061505708847	3498.5503932461
2	74	27459.243855485697	2507.1823497769
2	83	31105.33888174687	3646.0950262612
2	88	33244.74767572247	2139.4087939756
2	100	36764.304535905836	3519.5568601834
2	111	40713.219025474979	3948.9144895691
2	123	44120.725842006511	3407.5068165315
2	131	47128.159460518516	3007.433618512
2	136	49128.437969950035	2000.2785094315
2	144	52394.939627707943	3266.5016577579
2	153	54894.755795435056	2499.8161677271
2	163	58375.976642989562	3481.2208475545
2	170	60847.077377862305	2471.1007348727
2	180	64391.539307660431	3544.4619297981
2	190	67764.240915281706	3372.7016076213
2	201	71192.432310269222	3428.1913949875
2	210	74662.206331081697	3469.7740208125
2	220	78428.734200331391	3766.5278692497
2	227	81218.805491924294	2790.0712915929
2	236	84621.603634301581	3402.7981423773
2	245	88448.091821232819	3826.4881869312
2	252	90897.398401913242	2449.3065806804
2	261	94167.044074181477	3269.6456722682
2	272	97321.46914594342	3154.4250717619
2	279	100014.660258754167	2693.1911128107
2	285	101926.243381993855	1911.5831232397
2	293	104575.399389769891	2649.156007776
2	299	106931.913095084027	2356.5137053141
2	309	110137.087860493929	3205.1747654099
2	319	113798.913862765775	3661.8260022718
2	325	116015.046181459919	2216.1323186941
2	333	118771.937299682767	2756.8911182228
2	343	122127.122001629331	3355.1847019466
2	350	123888.724316842862	1761.6023152135
2	359	127593.856892874473	3705.1325760316
2	369	131511.060214089239	3917.2033212148
2	377	135023.880005045803	3512.8197909566
2	387	137943.268792144964	2919.3887870992
2	393	140244.089017272936	2300.820225128
2	400	141824.353684997196	1580.2646677243
2	410	145149.244834855209	3324.891149858
2	419	149428.963298373866	4279.7184635187
2	430	152736.665197438571	3307.7018990647
2	439	156719.901066971954	3983.2358695334
2	446	158725.95172931907	2006.0506623471
2	454	161955.457235639927	3229.5055063209
2	463	164977.393557946209	3021.9363223063
2	472	168213.651621853944	3236.2580639077
2	483	171809.810480335739	3596.1588584818
2	491	174379.964665719319	2570.1541853836
2	504	178683.339822990831	4303.3751572715
2	513	181659.757619071764	2976.4177960809
2	525	185086.979108420213	3427.2214893484
2	533	188482.208177796578	3395.2290693764
2	540	190621.258580801091	2139.0504030045
2	548	193846.373942401274	3225.1153616002
2	558	198431.978275347515	4585.6043329462
2	568	202198.322840407506	3766.34456506
2	574	205208.729563979448	3010.4067235719
2	582	207613.043931056761	2404.3143670773
2	594	211398.255538498068	3785.2116074413
2	605	215617.185755213739	4218.9302167157
2	613	218212.90250625463	2595.7167510409
2	627	222323.371556005458	4110.4690497508
2	636	226135.760134295578	3812.3885782901
2	648	229407.406497700158	3271.6463634046
2	655	232079.918595543149	2672.512097843
2	663	234523.655629623699	2443.7370340806
2	673	238073.76224559268	3550.106615969
2	678	239502.315877564271	1428.5536319716
2	688	243200.151157169623	3697.8352796054
2	697	246161.500970763175	2961.3498135936
2	705	248870.247200271136	2708.746229508
2	713	251199.986417312196	2329.7392170411
2	725	254838.831087900346	3638.8446705881
2	736	258903.753844974583	4064.9227570742
2	745	262783.453294588274	3879.6994496137
2	757	266662.344756675905	3878.8914620876
2	767	270542.388745467199	3880.0439887913
2	772	273169.604323664701	2627.2155781975
2	783	276664.257566747277	3494.6532430826
2	791	279166.238090652063	2501.9805239048
2	801	282587.75412118996	3421.5160305379
2	811	286010.060400702082	3422.3062795121
2	817	287445.230954652676	1435.1705539506
2	826	290152.23265900279	2707.0017043501
2	836	292713.834044337297	2561.6013853345
2	842	295171.528695523764	2457.6946511865
2	852	298892.425170983213	3720.8964754594
2	861	301427.361065265749	2534.9358942825
2	868	304657.868345221531	3230.5072799558
2	876	307895.615461561856	3237.7471163403
2	885	310940.26628709401	3044.6508255322
2	897	315807.674375711969	4867.408088618
2	905	318586.268837540439	2778.5944618285
2	912	321107.824416551768	2521.5555790113
2	921	324138.110916875332	3030.2865003236
2	931	327478.560584038525	3340.4496671632
2	940	330835.292030009471	3356.7314459709
2	950	334451.805661409192	3616.5136313997
2	961	338526.652625366144	4074.846963957
2	973	342052.840994135507	3526.1883687694
2	980	344925.420028413677	2872.5790342782
2	991	348787.493201438369	3862.0731730247
2	1003	352765.07137224547	3977.5781708071
2	1011	356216.985874297129	3451.9145020517
2	1019	358419.517526915329	2202.5316526182
2	1029	362131.917942222241	3712.4004153069
2	1040	366648.604533635114	4516.6865914129
2	1052	369728.488807892461	3079.8842742573
2	1062	373134.485960891504	3405.997152999
2	1074	376869.883514056016	3735.3975531645
2	1084	380331.915349024382	3462.0318349684
2	1093	384603.903877898154	4271.9885288738
2	1102	387761.452127108385	3157.5482492102
2	1111	391109.163898229633	3347.7117711212
2	1120	395072.296361136285	3963.1324629067
2	1128	397921.998940897209	2849.7025797609
2	1138	401657.245650189033	3735.2467092918
2	1150	405364.796571875958	3707.5509216869
2	1158	408192.020314699075	2827.2237428231
2	1163	410054.617723147422	1862.5974084483
2	1175	413581.746762874574	3527.1290397272
2	1185	417312.448080629149	3730.7013177546
2	1197	421061.268814117686	3748.8207334885
2	1205	423951.129548787178	2889.8607346695
2	1214	427023.302653385365	3072.1731045982
2	1224	430735.077218874396	3711.774565489
2	1232	433345.458886586168	2610.3816677118
2	1241	436767.518613464237	3422.0597268781
2	1251	441628.242721036114	4860.7241075719
2	1260	443839.798329211809	2211.5556081757
2	1269	446910.698442393952	3070.9001131821
2	1278	450025.824897573368	3115.1264551794
2	1290	454844.586529629344	4818.761632056
2	1302	458993.856278783681	4149.2697491543
2	1312	462140.261887153649	3146.40560837
2	1321	465403.587182541417	3263.3252953878
2	1330	467694.31167806037	2290.724495519
2	1340	471270.778927579562	3576.4672495192
2	1349	474157.092501595656	2886.3135740161
2	1359	478120.142171205993	3963.0496696103
2	1367	480592.678468697745	2472.5362974918
2	1378	484621.416228474158	4028.7377597764
2	1391	489422.474325494881	4801.0580970207
2	1400	492896.702137962024	3474.2278124671
2	1407	494663.658442720811	1766.9563047588
2	1418	496744.892473937984	2081.2340312172
2	1426	500055.024318164255	3310.1318442263
2	1433	502124.886967102106	2069.8626489379
2	1441	504709.574387362268	2584.6874202602
2	1447	506518.905414780642	1809.3310274184
2	1457	510900.660045468288	4381.7546306876
2	1465	513596.459184307645	2695.7991388394
2	1474	515863.164053158875	2266.7048688512
2	1480	517602.759771351742	1739.5957181929
2	1492	521856.916805310215	4254.1570339585
2	1501	525532.953661540563	3676.0368562303
2	1508	528237.826277618336	2704.8726160778
2	1516	530596.841207100118	2359.0149294818
2	1524	533809.051697328726	3212.2104902286
2	1534	538022.057774872559	4213.0060775438
2	1545	542193.115427414926	4171.0576525424
2	1554	545333.748224889899	3140.632797475
2	1565	549072.099374234716	3738.3511493448
2	1571	551753.289378318044	2681.1900040833
2	1581	554486.566492868628	2733.2771145506
2	1588	557147.382522141602	2660.816029273
2	1599	560494.109968654853	3346.7274465133
2	1608	563854.137580585708	3360.0276119309
2	1618	567847.37274872609	3993.2351681404
2	1630	571527.60775764477	3680.2350089187
2	1639	574342.937739123633	2815.3299814789
2	1644	575712.857192382259	1369.9194532586
2	1651	577152.940105972854	1440.0829135906
2	1662	581069.191861152692	3916.2517551798
2	1669	583931.563864275857	2862.3720031232
2	1681	587362.418327154636	3430.8544628788
2	1691	591641.916790162257	4279.4984630076
2	1700	594500.611157133288	2858.694366971
2	1710	599194.2439060193	4693.632748886
2	1718	601316.477541625544	2122.2336356062
2	1728	605087.026961403943	3770.5494197784
2	1739	608690.121958963616	3603.0949975597
2	1744	611206.067658355503	2515.9456993919
2	1754	614096.175340656234	2890.1076823007
2	1761	616722.282278747341	2626.1069380911
2	1770	620089.159313729077	3366.8770349817
2	1778	624007.701004156887	3918.5416904278
2	1788	626500.530540570661	2492.8295364138
2	1796	630014.027292793661	3513.496752223
2	1804	632902.158551313959	2888.1312585203
2	1812	635561.404497502416	2659.2459461885
2	1818	637400.020918808923	1838.6164213065
2	1826	639925.571360718505	2525.5504419096
2	1835	643501.606408227281	3576.0350475088
2	1843	647024.621672742115	3523.0152645148
2	1851	650073.637312534312	3049.0156397922
2	1862	653806.267542648176	3732.6302301139
2	1870	656296.454943227628	2490.1874005795
2	1875	658365.538883674937	2069.0839404473
2	1882	660622.739622183191	2257.2007385083
2	1891	663478.237107885117	2855.4974857019
2	1899	666777.581337606582	3299.3442297215
2	1907	669736.864966666374	2959.2836290598
2	1916	673148.957179812763	3412.0922131464
2	1926	676287.760271388154	3138.8030915754
2	1933	678882.813259167645	2595.0529877795
2	1941	681665.379742160488	2782.5664829928
2	1949	684866.955462237869	3201.5757200774
2	1958	688088.700065924835	3221.744603687
2	1970	692822.712293523413	4734.0122275986
2	1978	695974.915110413035	3152.2028168896
2	1986	698137.710596085576	2162.7954856725
2	2000	702897.542281402325	4759.8316853167
2	2007	705345.046121114915	2447.5038397126
2	2015	707325.967722851833	1980.9216017369
2	2023	709557.058637403002	2231.0909145512
2	2031	712315.497940988331	2758.4393035853
2	2039	715413.360173790766	3097.8622328024
2	2047	717973.721432802318	2560.3612590116
2	2054	721283.989054779573	3310.2676219773
2	2066	725195.627928385562	3911.638873606
2	2080	729345.2132698149	4149.5853414293
2	2087	731696.778043848514	2351.5647740336
2	2096	734492.853838205389	2796.0757943569
2	2108	738482.867100206255	3990.0132620009
2	2119	741963.315743627078	3480.4486434208
2	2129	745002.184972981974	3038.8692293549
2	2139	748311.953252856672	3309.7682798747
2	2148	751046.000077924743	2734.0468250681
2	2155	753550.759092718415	2504.7590147937
2	2165	756890.936256176845	3340.1771634584
2	2174	760803.74816770205	3912.8119115252
2	2185	765064.536861819269	4260.7886941172
2	2191	766616.978407208862	1552.4415453896
2	2199	769939.897139486912	3322.918732278
2	2206	771883.519749529715	1943.6226100428
2	2213	775686.022113659475	3802.5023641298
2	2223	778809.115290851389	3123.0931771919
2	2232	781328.402081457956	2519.2867906066
2	2237	783087.415354955069	1759.0132734971
2	2244	786279.912504390873	3192.4971494358
2	2249	787759.682713192948	1479.7702088021
2	2257	790632.164723449448	2872.4820102565
2	2265	793539.449066924924	2907.2843434755
2	2275	797258.098021312679	3718.6489543878
2	2286	800922.3546389491	3664.2566176364
2	2296	803331.077198032354	2408.7225590833
2	2307	806803.017211589096	3471.9400135567
2	2315	810816.424218309177	4013.4070067201
2	2324	813162.188184494217	2345.763966185
2	2334	816178.860497335036	3016.6723128408
2	2342	819308.231025701453	3129.3705283664
2	2351	823092.896179854934	3784.6651541535
2	2360	826419.701985153435	3326.8058052985
2	2371	831338.528601382925	4918.8266162295
2	2380	835150.823202473178	3812.2946010903
2	2390	838943.099610158309	3792.2764076851
2	2398	841473.454232770085	2530.3546226118
2	2406	844683.0249176827	3209.5706849126
2	2417	848546.287022112005	3863.2621044293
2	2424	851283.603225275943	2737.3162031639
2	2435	854763.719979557277	3480.1167542813
2	2445	858647.497594566153	3883.7776150089
2	2452	860876.127449981937	2228.6298554158
2	2462	863918.808872276054	3042.6814222941
2	2470	866167.386221839184	2248.5773495631
2	2480	869015.516491024825	2848.1302691856
2	2488	871385.216430388461	2369.6999393636
2	2495	874384.16441862944	2998.947988241
2	2503	877138.493404537509	2754.3289859081
2	2514	881782.615718920785	4644.1223143833
2	2524	885249.592907144758	3466.977188224
2	2531	889393.556201225218	4143.9632940805
2	2543	893599.739468609986	4206.1832673848
2	2549	895304.844567133186	1705.1050985232
2	2558	898787.099581584407	3482.2550144512
2	2569	901774.713128339572	2987.6135467552
2	2579	904884.400599380097	3109.6874710405
2	2587	907680.526613211332	2796.1260138312
2	2598	912107.529933611005	4427.0033203997
2	2608	916081.264118570909	3973.7341849599
2	2620	920515.341365011484	4434.0772464406
2	2628	922871.25616378624	2355.9147987748
2	2638	927097.418355010525	4226.1621912243
2	2645	928996.644857036957	1899.2265020264
2	2653	932598.30122874126	3601.6563717043
2	2664	935995.59543561198	3397.2942068707
2	2674	939647.367321979331	3651.7718863674
2	2681	941697.699996479864	2050.3326745005
2	2688	944188.504315260874	2490.804318781
2	2696	946822.462957492174	2633.9586422313
2	2708	950888.039619661945	4065.5766621698
2	2714	952751.199790136967	1863.160170475
2	2724	956293.788967724037	3542.5891775871
2	2732	960126.197532797311	3832.4085650733
2	2741	963485.775026399721	3359.5774936024
2	2749	966708.648298401465	3222.8732720017
2	2759	970131.958690099497	3423.310391698
2	2766	972446.060444880356	2314.1017547809
2	2775	975663.925994583485	3217.8655497031
2	2785	978874.83043167748	3210.904437094
2	2794	982526.261383434837	3651.4309517574
2	2802	985908.160916157146	3381.8995327223
2	2812	989669.745996315111	3761.585080158
2	2820	991636.748930602414	1967.0029342873
2	2831	995103.886958467854	3467.1380278654
2	2843	998599.263106472871	3495.376148005
2	2857	1003427.259053313255	4827.9959468404
2	2864	1006022.249592770904	2594.9905394576
2	2871	1008821.926579973742	2799.6769872028
2	2883	1012874.919986142859	4052.9934061691
2	2893	1016101.735429605551	3226.8154434627
2	2902	1020010.67604145509	3908.9406118495
2	2913	1023600.290924962692	3589.6148835076
2	2925	1027657.419585669495	4057.1286607068
2	2933	1031237.535843649029	3580.1162579795
2	2943	1035457.288034493185	4219.7521908442
2	2952	1037786.696775094688	2329.4087406015
2	2961	1040408.47379837659	2621.7770232819
2	2969	1043149.602964217857	2741.1291658413
2	2976	1046288.967292313547	3139.3643280957
2	2985	1049579.602091456847	3290.6347991433
2	2993	1052327.174396580169	2747.5723051233
2	3004	1055537.825449090535	3210.6510525104
2	3012	1058351.716425083662	2813.8909759931
2	3019	1061617.173134372654	3265.456709289
2	3029	1065003.213410382244	3386.0402760096
2	3035	1067189.724425179969	2186.5110147977
2	3043	1070490.476638614285	3300.7522134343
2	3051	1073524.01071360809	3033.5340749938
2	3060	1076870.223716623236	3346.2130030151
2	3070	1081473.097185138699	4602.8734685155
2	3079	1085004.061999591154	3530.9648144525
2	3086	1087174.640791327779	2170.5787917366
2	3097	1090613.041132735175	3438.4003414074
2	3103	1093455.318223242735	2842.2770905076
2	3111	1096063.146831700665	2607.8286084579
2	3118	1098939.331275271339	2876.1844435707
2	3124	1100894.071779633028	1954.7405043617
2	3134	1103741.1062958884	2847.0345162554
2	3142	1106604.188052029437	2863.081756141
2	3149	1108503.603979828856	1899.4159277994
2	3158	1112219.366248324602	3715.7622684957
2	3168	1116325.192389031962	4105.8261407074
2	3179	1119654.458561609589	3329.2661725776
2	3189	1122902.597984089606	3248.13942248
2	3195	1124668.330172309741	1765.7321882201
2	3203	1127613.20759318778	2944.877420878
2	3213	1131638.593010790736	4025.385417603
2	3222	1134965.705108991914	3327.1120982012
2	3232	1138358.395035518423	3392.6899265265
2	3238	1139590.978653403089	1232.5836178847
2	3246	1142203.330823429951	2612.3521700269
2	3254	1146322.900373675021	4119.5695502451
2	3263	1149441.805493831726	3118.9051201567
2	3272	1151890.174173424112	2448.3686795924
2	3282	1155378.998154890815	3488.8239814667
2	3291	1159192.390097281988	3813.3919423912
2	3300	1162146.096765948552	2953.7066686666
2	3308	1164708.227026672196	2562.1302607236
2	3318	1169028.545171278623	4320.3181446064
2	3327	1172428.491814993416	3399.9466437148
2	3337	1175699.629111192284	3271.1372961989
2	3347	1179905.232476955375	4205.6033657631
2	3357	1183767.799456534072	3862.5669795787
2	3367	1186495.578803611084	2727.779347077
2	3376	1189599.786763661638	3104.2079600506
2	3382	1191617.435389990084	2017.6486263284
2	3396	1195863.586126430989	4246.1507364409
2	3404	1199010.670969309383	3147.0848428784
2	3410	1200350.040987390192	1339.3700180808
2	3415	1202682.664531166764	2332.6235437766
2	3424	1205471.655460400605	2788.9909292338
2	3437	1209817.361885751696	4345.7064253511
2	3444	1212663.79162883396	2846.4297430823
2	3453	1215597.878088033858	2934.0864591999
2	3464	1218519.480738323282	2921.6026502894
2	3474	1220883.929181005906	2364.4484426826
2	3484	1224534.770143870364	3650.8409628645
2	3496	1228614.209537557426	4079.4393936871
2	3507	1231551.445861836064	2937.2363242786
2	3516	1234825.90008317503	3274.454221339
2	3528	1238365.616876841624	3539.7167936666
2	3537	1242374.031682103042	4008.4148052614
2	3547	1246093.650195677865	3719.6185135748
2	3556	1248189.457346359368	2095.8071506815
2	3567	1252774.55812774143	4585.1007813821
2	3579	1257212.676025321807	4438.1178975804
2	3587	1261049.61854936565	3836.9425240438
2	3598	1265951.682207919757	4902.0636585541
2	3611	1270281.3473214862	4329.6651135664
2	3619	1273374.107473064314	3092.7601515781
2	3628	1277567.60438354696	4193.4969104826
2	3638	1281781.284854351644	4213.6804708047
2	3649	1285400.27530915114	3618.9904547995
2	3657	1287833.976919320515	2433.7016101694
2	3666	1291737.365108798361	3903.3881894778
2	3675	1294641.3748735563	2904.0097647579
2	3685	1298339.592055021889	3698.2171814656
2	3692	1300774.213878368132	2434.6218233462
2	3704	1304352.081941231259	3577.8680628631
2	3714	1308076.020020409593	3723.9380791783
2	3722	1310693.149171513611	2617.129151104
2	3732	1313149.854882806646	2456.705711293
2	3742	1317857.014072523558	4707.1591897169
2	3750	1320425.327095342906	2568.3130228193
2	3759	1323438.887849100972	3013.5607537581
2	3766	1325809.592986106979	2370.705137006
2	3775	1328804.317885846937	2994.72489974
2	3784	1331768.805656978035	2964.4877711311
2	3795	1335772.680910094747	4003.8752531167
2	3804	1339586.825317237632	3814.1444071429
2	3813	1342571.958152088442	2985.1328348508
2	3820	1345008.594020339766	2436.6358682513
2	3829	1348205.888544721635	3197.2945243819
2	3838	1351203.503568330887	2997.6150236093
2	3845	1353334.5411582851	2131.0375899542
2	3856	1357223.391344980445	3888.8501866953
2	3865	1360321.743807359707	3098.3524623793
2	3871	1362263.815078348961	1942.0712709893
2	3880	1365983.355284342651	3719.5402059937
2	3893	1369222.907441086246	3239.5521567436
2	3904	1373439.75612425722	4216.848683171
2	3911	1376227.458299906103	2787.7021756489
2	3919	1378981.408989569283	2753.9506896632
2	3930	1382745.054932800232	3763.6459432309
2	3938	1386095.896312734223	3350.841379934
2	3947	1389190.603743866197	3094.707431132
2	3957	1392746.250921813882	3555.6471779477
2	3967	1396510.004574945308	3763.7536531314
2	3978	1400496.714275004454	3986.7097000591
2	3986	1403063.663987559378	2566.9497125549
2	3994	1405890.557444281988	2826.8934567226
2	4004	1409758.365205675476	3867.8077613935
2	4011	1411576.354408334122	1817.9892026586
2	4023	1415242.213755520173	3665.8593471861
2	4034	1418356.193971121796	3113.9802156016
2	4046	1421947.985919518509	3591.7919483967
2	4056	1425571.108228247726	3623.1223087292
2	4063	1428043.225159216786	2472.1169309691
2	4072	1431846.764804818781	3803.539645602
2	4081	1434414.194076089302	2567.4292712705
2	4090	1438066.916148970018	3652.7220728807
2	4101	1441603.387900348867	3536.4717513788
2	4109	1445108.827407052856	3505.439506704
2	4119	1448492.545484821428	3383.7180777686
2	4126	1450516.586385551025	2024.0409007296
2	4136	1453704.080306086806	3187.4939205358
2	4147	1457449.558655801347	3745.4783497145
2	4153	1459061.8722605753	1612.313604774
2	4162	1461737.504910933902	2675.6326503586
2	4170	1465235.589871066739	3498.0849601328
2	4181	1469389.372563664918	4153.7826925982
2	4192	1472405.05090083473	3015.6783371698
2	4199	1475321.982181677712	2916.931280843
2	4210	1479674.994161375916	4353.0119796982
2	4217	1482517.653433489732	2842.6592721138
2	4228	1485684.892805968531	3167.2393724788
2	4238	1488740.90779661213	3056.0149906436
2	4248	1491912.340910802716	3171.4331141906
2	4256	1495408.534157462539	3496.1932466598
2	4262	1497770.715113380114	2362.1809559176
2	4274	1501809.264029120216	4038.5489157401
2	4281	1504446.902496228116	2637.6384671079
2	4291	1507316.268933867226	2869.3664376391
2	4301	1511062.060868390958	3745.7919345237
2	4308	1514039.607227314385	2977.5463589234
2	4317	1516829.822476348031	2790.2152490336
2	4325	1519554.747174214694	2724.9246978667
2	4333	1523005.736470967654	3450.989296753
2	4343	1526439.326116838615	3433.589645871
2	4350	1529114.792373147916	2675.4662563093
2	4360	1533072.631496214432	3957.8391230665
2	4366	1535067.787403427189	1995.1559072128
2	4377	1538597.520061698867	3529.7326582717
2	4388	1543074.11437821587	4476.594316517
2	4397	1546231.313225347675	3157.1988471318
2	4406	1550109.046802949288	3877.7335776016
2	4414	1553043.93264739787	2934.8858444486
2	4424	1556569.349412387366	3525.4167649895
2	4435	1560027.518686512615	3458.1692741252
2	4445	1563673.727737390567	3646.209050878
2	4456	1567631.313718948644	3957.5859815581
2	4464	1570360.347435996068	2729.0337170474
2	4472	1573176.530310697986	2816.1828747019
2	4478	1575207.281760312749	2030.7514496148
2	4486	1578159.325717482848	2952.0439571701
2	4494	1581224.051893665588	3064.7261761827
2	4501	1584617.109536379709	3393.0576427141
2	4509	1587218.883423996291	2601.7738876166
2	4516	1590107.480575586802	2888.5971515905
2	4524	1593421.809214633091	3314.3286390463
2	4533	1596261.432893900334	2839.6236792672
2	4543	1600286.38445651172	4024.9515626114
2	4552	1603640.545418299868	3354.1609617881
2	4560	1607358.994504809514	3718.4490865096
2	4570	1611151.905642589689	3792.9111377802
2	4578	1613617.873663525232	2465.9680209355
2	4585	1616363.161551836081	2745.2878883108
2	4592	1618797.46669500614	2434.3051431701
2	4601	1621713.610996515625	2916.1443015095
2	4610	1625182.029008050585	3468.418011535
2	4622	1630145.98677246845	4963.9577644179
2	4630	1632535.095570213299	2389.1087977448
2	4639	1636071.886639273863	3536.7910690606
2	4647	1639284.555529500496	3212.6688902266
2	4657	1642718.277253559929	3433.7217240594
2	4664	1644451.342470338707	1733.0652167788
2	4676	1648610.907212435407	4159.5647420967
2	4687	1653178.822547011217	4567.9153345758
2	4695	1655363.005132670653	2184.1825856594
2	4705	1658576.079316903044	3213.0741842324
2	4713	1661559.39705481301	2983.31773791
2	4723	1665746.137463324843	4186.7404085118
2	4731	1669058.296432416094	3312.1589690913
2	4742	1672329.851108626602	3271.5546762105
2	4752	1675682.988002663617	3353.136894037
2	4765	1680172.174020297965	4489.1860176343
2	4776	1683463.626326015359	3291.4523057174
2	4785	1686727.44662342607	3263.8202974107
2	4794	1689525.234589493042	2797.787966067
2	4803	1693018.706090049958	3493.4715005569
2	4812	1696376.376865524939	3357.670775475
2	4822	1699034.759674058437	2658.3828085335
2	4832	1701535.427287733324	2500.6676136749
2	4845	1705504.761680751249	3969.3343930179
2	4850	1707762.005931115852	2257.2442503646
2	4856	1709464.544453169363	1702.5385220535
2	4864	1712455.351132038194	2990.8066788688
2	4873	1716118.610844179202	3663.259712141
2	4883	1720202.429566090141	4083.8187219109
2	4891	1723851.994184428041	3649.5646183379
2	4901	1727587.266369117571	3735.2721846895
2	4910	1730568.37844518028	2981.1120760627
2	4921	1734544.776025624162	3976.3975804439
2	4930	1737475.898469239621	2931.1224436155
2	4937	1740181.300935102775	2705.4024658632
2	4945	1743251.279046270213	3069.9781111674
2	4956	1745675.144682708345	2423.8656364381
2	4967	1749354.943401692584	3679.7987189842
2	4974	1752181.09854091905	2826.1551392265
2	4987	1756311.859725276157	4130.7611843571
2	4996	1759959.254502528496	3647.3947772523
2	5005	1763343.141872738636	3383.8873702101
2	5016	1766786.286905687451	3443.1450329488
2	5023	1769353.073132713475	2566.786227026
2	5032	1772796.306153293849	3443.2330205804
2	5040	1775285.860376875066	2489.5542235812
2	5047	1778231.799270096385	2945.9388932213
2	5054	1780421.690679202006	2189.8914091056
2	5064	1784047.074357653187	3625.3836784512
2	5073	1787445.87212568164	3398.7977680285
2	5082	1791191.48180061035	3745.6096749287
2	5090	1794097.167059965583	2905.6852593552
2	5100	1797715.873808646726	3618.7067486811

