version 2
run case2-7teachers-5-20181218-19:05:43-6160
attr configname case2-7teachers
attr datetime 20181218-19:05:43
attr experiment case2-7teachers
attr inifile simulations/omnetpp.ini
attr iterationvars "$0=\"uniform\""
attr iterationvarsf uniform-
attr measurement "$0=\"uniform\""
attr network PipelinedExamSession
attr processid 6160
attr repetition 5
attr replication #5
attr resultdir results
attr runnumber 5
attr seedset 5
param **.teachersNumber 7
param **.answerTimeDistribution "\"uniform\""
param **.minUniform 300
param **.maxUniform 1800
param **.scaleLognormal 6.95654
param **.shapeLognormal 0.65

vector 0 PipelinedExamSession examinationTime:vector ETV
attr source examFinished
vector 1 PipelinedExamSession studentsWaitingTime:vector ETV
attr source waitingTime
vector 2 PipelinedExamSession teachersIdleTime:vector ETV
attr source idleTime
0	85	6300	6300
0	110	7200	6300
0	135	8100	6300
0	160	9000	6300
0	185	9900	6300
0	210	10800	6300
0	235	11700	6300
0	260	12600	6300
0	285	13500	6300
0	310	14400	6300
0	335	15300	6300
0	360	16200	6300
0	385	17100	6300
0	410	18000	6300
0	435	18900	6300
0	460	19800	6300
0	485	20700	6300
0	510	21600	6300
0	535	22500	6300
0	560	23400	6300
0	585	24300	6300
0	610	25200	6300
0	635	26100	6300
0	660	27000	6300
0	685	27900	6300
0	710	28800	6300
0	735	29700	6300
0	760	30600	6300
0	785	31500	6300
0	810	32400	6300
0	835	33300	6300
0	860	34200	6300
0	885	35100	6300
0	910	36000	6300
0	935	36900	6300
0	960	37800	6300
0	985	38700	6300
0	1010	39600	6300
0	1035	40500	6300
0	1060	41400	6300
0	1085	42300	6300
0	1110	43200	6300
0	1135	44100	6300
0	1160	45000	6300
0	1185	45900	6300
0	1210	46800	6300
0	1235	47700	6300
0	1260	48600	6300
0	1285	49500	6300
0	1310	50400	6300
0	1335	51300	6300
0	1360	52200	6300
0	1385	53100	6300
0	1410	54000	6300
0	1435	54900	6300
0	1460	55800	6300
0	1485	56700	6300
0	1510	57600	6300
0	1535	58500	6300
0	1560	59400	6300
0	1585	60300	6300
0	1610	61200	6300
0	1635	62100	6300
0	1660	63000	6300
0	1685	63900	6300
0	1710	64800	6300
0	1735	65700	6300
0	1760	66600	6300
0	1785	67500	6300
0	1810	68400	6300
0	1835	69300	6300
0	1860	70200	6300
0	1885	71100	6300
0	1910	72000	6300
0	1935	72900	6300
0	1960	73800	6300
0	1985	74700	6300
0	2010	75600	6300
0	2035	76500	6300
0	2060	77400	6300
0	2085	78300	6300
0	2110	79200	6300
0	2135	80100	6300
0	2160	81000	6300
0	2185	81900	6300
0	2210	82800	6300
0	2235	83700	6300
0	2260	84600	6300
0	2285	85500	6300
0	2310	86400	6300
1	85	6300	0
1	110	7200	0
1	135	8100	0
1	160	9000	0
1	185	9900	0
1	210	10800	0
1	235	11700	0
1	260	12600	0
1	285	13500	0
1	310	14400	0
1	335	15300	0
1	360	16200	0
1	385	17100	0
1	410	18000	0
1	435	18900	0
1	460	19800	0
1	485	20700	0
1	510	21600	0
1	535	22500	0
1	560	23400	0
1	585	24300	0
1	610	25200	0
1	635	26100	0
1	660	27000	0
1	685	27900	0
1	710	28800	0
1	735	29700	0
1	760	30600	0
1	785	31500	0
1	810	32400	0
1	835	33300	0
1	860	34200	0
1	885	35100	0
1	910	36000	0
1	935	36900	0
1	960	37800	0
1	985	38700	0
1	1010	39600	0
1	1035	40500	0
1	1060	41400	0
1	1085	42300	0
1	1110	43200	0
1	1135	44100	0
1	1160	45000	0
1	1185	45900	0
1	1210	46800	0
1	1235	47700	0
1	1260	48600	0
1	1285	49500	0
1	1310	50400	0
1	1335	51300	0
1	1360	52200	0
1	1385	53100	0
1	1410	54000	0
1	1435	54900	0
1	1460	55800	0
1	1485	56700	0
1	1510	57600	0
1	1535	58500	0
1	1560	59400	0
1	1585	60300	0
1	1610	61200	0
1	1635	62100	0
1	1660	63000	0
1	1685	63900	0
1	1710	64800	0
1	1735	65700	0
1	1760	66600	0
1	1785	67500	0
1	1810	68400	0
1	1835	69300	0
1	1860	70200	0
1	1885	71100	0
1	1910	72000	0
1	1935	72900	0
1	1960	73800	0
1	1985	74700	0
1	2010	75600	0
1	2035	76500	0
1	2060	77400	0
1	2085	78300	0
1	2110	79200	0
1	2135	80100	0
1	2160	81000	0
1	2185	81900	0
1	2210	82800	0
1	2235	83700	0
1	2260	84600	0
1	2285	85500	0
1	2310	86400	0
2	2335	86400	0
2	2335	86400	900
2	2335	86400	1800
2	2335	86400	2700
2	2335	86400	3600
2	2335	86400	4500
2	2335	86400	5400

