file 80079 1544283418                                           
version 2
run case1-0-20181208-16:36:50-4628
attr configname case1
attr datetime 20181208-16:36:50
attr experiment case1
attr inifile omnetpp.ini
attr iterationvars "$0=\"uniform\""
attr iterationvarsf uniform-
attr measurement "$0=\"uniform\""
attr network ParallelExamSession
attr processid 4628
attr repetition 0
attr replication #0
attr resultdir results
attr runnumber 0
attr seedset 0
param **.teachersNumber 20
param **.answerTimeDistribution "\"uniform\""
param **.minUniform 300
param **.maxUniform 1800

vector 0 ParallelExamSession.teacher[1] examinationTime:vector ETV
attr source examFinished
vector 1 ParallelExamSession.teacher[18] examinationTime:vector ETV
attr source examFinished
vector 2 ParallelExamSession.teacher[15] examinationTime:vector ETV
attr source examFinished
vector 3 ParallelExamSession.teacher[11] examinationTime:vector ETV
attr source examFinished
vector 4 ParallelExamSession.teacher[8] examinationTime:vector ETV
attr source examFinished
vector 5 ParallelExamSession.teacher[9] examinationTime:vector ETV
attr source examFinished
vector 6 ParallelExamSession.teacher[13] examinationTime:vector ETV
attr source examFinished
vector 7 ParallelExamSession.teacher[4] examinationTime:vector ETV
attr source examFinished
vector 8 ParallelExamSession.teacher[6] examinationTime:vector ETV
attr source examFinished
vector 9 ParallelExamSession.teacher[14] examinationTime:vector ETV
attr source examFinished
vector 10 ParallelExamSession.teacher[5] examinationTime:vector ETV
attr source examFinished
vector 11 ParallelExamSession.teacher[7] examinationTime:vector ETV
attr source examFinished
vector 12 ParallelExamSession.teacher[19] examinationTime:vector ETV
attr source examFinished
vector 13 ParallelExamSession.teacher[3] examinationTime:vector ETV
attr source examFinished
vector 14 ParallelExamSession.teacher[2] examinationTime:vector ETV
attr source examFinished
vector 15 ParallelExamSession.teacher[0] examinationTime:vector ETV
attr source examFinished
vector 16 ParallelExamSession.teacher[12] examinationTime:vector ETV
attr source examFinished
vector 17 ParallelExamSession.teacher[16] examinationTime:vector ETV
attr source examFinished
vector 18 ParallelExamSession.teacher[17] examinationTime:vector ETV
attr source examFinished
vector 19 ParallelExamSession.teacher[10] examinationTime:vector ETV
attr source examFinished
0	2435 3907 314 34405 17217.112874030136 1799568.763053277661 87 16783.412934747 25542.436581454 1799568.7630533 37568811789.294
1	6342 3855 330 34131 18005.461260792803 1784937.732268357791 86 16396.174002439 25442.61621614 1784937.7322684 37341552137.229
2	10197 3854 358 34177 19557.920888531954 1787291.116902837669 86 15919.943215675 25004.097868223 1787291.1169028 37418708361.819
3	14051 3815 359 34310 19665.102691389621 1794568.138316273842 85 15602.833335637 24820.721181342 1794568.1383163 38226370728.742
4	17866 3854 363 34272 19861.975281382912 1792408.61091844287 86 14455.409945338 26648.249047925 1792408.6109184 37682466663.135
5	21720 3820 376 34359 20505.175755824898 1797140.220073401141 85 17106.637177407 25199.951136368 1797140.2200734 38279210124.292
6	25540 3814 383 34190 20817.26776447613 1787929.261842160644 85 16794.301821501 26509.107303224 1787929.2618422 37908717927.6
7	29354 3808 385 34329 20916.278621996754 1795432.964067673433 85 16474.476163625 25190.196510754 1795432.9640677 38233450083.778
8	33162 3856 388 34168 20956.300599267709 1786724.063839414312 86 15396.879258798 24443.030909286 1786724.0638394 37398240937.507
9	37018 3862 394 34240 21391.762161045337 1790764.470971888051 86 15379.808673752 26918.99145639 1790764.4709719 37642107491.244
10	40880 3934 395 34302 21399.934587534516 1793987.990361638507 86 17032.137804665 26305.595071404 1793987.9903616 37693404339.021
11	44814 3934 399 34175 21588.231904199349 1787189.550521085203 86 16281.824042788 25314.091067179 1787189.5505211 37423355826.389
12	48748 3856 400 34033 21627.538914210167 1780081.889000139343 84 16284.071935457 25831.592978211 1780081.8890001 38033821263.93
13	52604 3985 410 34308 22397.926559555346 1794427.348444936945 87 16116.365100257 25020.779628307 1794427.3484449 37319165760.467
14	56589 3849 418 34126 22699.246112722906 1784613.038467127052 84 16381.379084196 25185.073623899 1784613.0384671 38181566850.001
15	60438 3905 421 34166 22753.599733463491 1786581.671492778835 85 14884.188545169 26135.494056973 1786581.6714928 37931993979.319
16	64343 3952 422 34162 22765.780747868122 1786364.837735658666 86 15947.743142839 25894.724403857 1786364.8377357 37410152386.646
17	68295 3896 430 34269 23394.198919879274 1792377.773599117215 85 14781.40012105 26735.686386237 1792377.7735991 38193126891.519
18	72191 3944 433 34401 23537.525508552792 1799409.221501439024 86 15731.76246963 26232.890185551 1799409.2215014 38014893471.398
19	76135 3942 463 34065 25252.371062175372 1781734.415605198714 86 14687.509632669 26207.45675324 1781734.4156052 37299034181.641

