version 2
run case1-0-20181211-12:50:19-14812
attr configname case1
attr datetime 20181211-12:50:19
attr experiment case1
attr inifile omnetpp.ini
attr iterationvars "$0=\"uniform\""
attr iterationvarsf uniform-
attr measurement "$0=\"uniform\""
attr network ParallelExamSession
attr processid 14812
attr repetition 0
attr replication #0
attr resultdir results
attr runnumber 0
attr seedset 0
param **.teachersNumber 1
param **.answerTimeDistribution "\"uniform\""
param **.minUniform 300
param **.maxUniform 1800

vector 0 ParallelExamSession examinationTime:vector ETV
attr source examFinished
0	1	1123.220253456384	1123.2202534564
0	2	2312.487178039737	1189.2669245834
0	3	3685.271225497127	1372.7840474574
0	4	5251.669841632248	1566.3986161351
0	5	6455.814897199163	1204.1450555669
0	6	8042.733326973395	1586.9184297742
0	7	9160.058093047702	1117.3247660743
0	8	10730.935698933901	1570.8776058862
0	9	11666.417894116604	935.4821951827
0	10	12901.763438712807	1235.3455445962
0	11	14170.604611351156	1268.8411726383
0	12	15047.177173686215	876.57256233506
0	13	16003.557988652029	956.38081496581
0	14	16749.859896535055	746.30190788303

