version 2
run case2-0-20181211-12:53:40-8996
attr configname case2
attr datetime 20181211-12:53:40
attr experiment case2
attr inifile omnetpp.ini
attr iterationvars "$0=\"uniform\""
attr iterationvarsf uniform-
attr measurement "$0=\"uniform\""
attr network PipelinedExamSession
attr processid 8996
attr repetition 0
attr replication #0
attr resultdir results
attr runnumber 0
attr seedset 0
param **.teachersNumber 3
param **.answerTimeDistribution "\"uniform\""
param **.minUniform 300
param **.maxUniform 1800

vector 0 PipelinedExamSession examinationTime:vector ETV
attr source examFinished
vector 1 PipelinedExamSession studentsWaitingTime:vector ETV
attr source waitingTimeInterval
vector 2 PipelinedExamSession teachersIdleTime:vector ETV
attr source idleTimeInterval
0	11	4082.922730688006	4082.922730688
0	14	5018.404925870709	3328.894175333
0	19	6326.335962396116	4013.8487843564
0	30	8356.264075334185	4023.8254413474
0	35	9372.761742817239	2998.1451199623
0	36	10466.10412511509	3795.2173433499
0	41	11617.830906109886	2792.4997430295
0	46	12287.27465006523	2267.6053754753
0	57	14707.096530077981	3701.5382500598
0	64	16442.829261557201	3654.0142270736
1	11	4082.922730688006	0
1	14	5018.404925870709	566.29049708135
1	19	6326.335962396116	0
1	30	8356.264075334185	453.55283981189
1	35	9372.761742817239	1378.4060626058
1	36	10466.10412511509	439.33067691978
1	41	11617.830906109886	1637.3942432692
1	46	12287.27465006523	2446.6628911905
1	57	14707.096530077981	2723.5674548429
1	64	16442.829261557201	3631.6619273275
2	69	18000	0
2	69	18000	178.73643769417
2	69	18000	2496.6303968104

