version 2
run case1-0-20181208-16:36:50-4628
attr configname case1
attr datetime 20181208-16:36:50
attr experiment case1
attr inifile omnetpp.ini
attr iterationvars "$0=\"uniform\""
attr iterationvarsf uniform-
attr measurement "$0=\"uniform\""
attr network ParallelExamSession
attr processid 4628
attr repetition 0
attr replication #0
attr resultdir results
attr runnumber 0
attr seedset 0
param **.teachersNumber 20
param **.answerTimeDistribution "\"uniform\""
param **.minUniform 300
param **.maxUniform 1800

vector 0 ParallelExamSession.teacher[1] examinationTime:vector ETV
attr source examFinished
vector 1 ParallelExamSession.teacher[18] examinationTime:vector ETV
attr source examFinished
vector 2 ParallelExamSession.teacher[15] examinationTime:vector ETV
attr source examFinished
vector 3 ParallelExamSession.teacher[11] examinationTime:vector ETV
attr source examFinished
vector 4 ParallelExamSession.teacher[8] examinationTime:vector ETV
attr source examFinished
vector 5 ParallelExamSession.teacher[9] examinationTime:vector ETV
attr source examFinished
vector 6 ParallelExamSession.teacher[13] examinationTime:vector ETV
attr source examFinished
vector 7 ParallelExamSession.teacher[4] examinationTime:vector ETV
attr source examFinished
vector 8 ParallelExamSession.teacher[6] examinationTime:vector ETV
attr source examFinished
vector 9 ParallelExamSession.teacher[14] examinationTime:vector ETV
attr source examFinished
vector 10 ParallelExamSession.teacher[5] examinationTime:vector ETV
attr source examFinished
vector 11 ParallelExamSession.teacher[7] examinationTime:vector ETV
attr source examFinished
vector 12 ParallelExamSession.teacher[19] examinationTime:vector ETV
attr source examFinished
vector 13 ParallelExamSession.teacher[3] examinationTime:vector ETV
attr source examFinished
vector 14 ParallelExamSession.teacher[2] examinationTime:vector ETV
attr source examFinished
vector 15 ParallelExamSession.teacher[0] examinationTime:vector ETV
attr source examFinished
vector 16 ParallelExamSession.teacher[12] examinationTime:vector ETV
attr source examFinished
vector 17 ParallelExamSession.teacher[16] examinationTime:vector ETV
attr source examFinished
vector 18 ParallelExamSession.teacher[17] examinationTime:vector ETV
attr source examFinished
vector 19 ParallelExamSession.teacher[10] examinationTime:vector ETV
attr source examFinished
0	314	17217.112874030136	17217.11287403
0	753	40176.961244666021	22959.848370636
0	1170	62098.764724563811	21921.803479898
0	1561	82502.773056621668	20404.008332058
0	1903	100604.638952063404	18101.865895442
0	2331	122795.979641494352	22191.340689431
0	2701	142605.457536759797	19809.477895265
0	3089	163598.629790358258	20993.172253598
0	3506	185025.943585205837	21427.313794848
0	3901	206283.058911678396	21257.115326473
0	4263	225143.046910408899	18859.987998731
0	4678	247959.59837408738	22816.551463678
0	5077	268834.847440710309	20875.249066623
0	5399	285898.872049176151	17064.024608466
0	5822	308208.279604674333	22309.407555498
0	6227	329479.971637018044	21271.692032344
0	6658	351957.641488057582	22477.66985104
0	7037	372226.622434915066	20268.980946857
0	7431	392488.133218721512	20261.510783806
0	7828	413265.663370373686	20777.530151652
0	8171	430649.163163849181	17383.499793475
0	8574	451745.701322215639	21096.538158366
0	9014	474775.371608790045	23029.670286574
0	9443	497050.2464451129	22274.874836323
0	9901	520479.277040110939	23429.030594998
0	10271	540328.314583981447	19849.037543871
0	10618	558833.195447456129	18504.880863475
0	11037	581532.338135526554	22699.14268807
0	11483	605046.679279650603	23514.341144124
0	11896	626922.985733253927	21876.306453603
0	12271	646486.063483636873	19563.077750383
0	12754	671512.266700272498	25026.203216636
0	13111	689627.727409126289	18115.460708854
0	13533	710953.930397867279	21326.202988741
0	13874	728863.617294235212	17909.686896368
0	14327	752338.669022661693	23475.051728426
0	14704	772937.476373976157	20598.807351314
0	15152	796279.861285002032	23342.384911026
0	15515	814944.806142593797	18664.944857592
0	15875	834014.487979933683	19069.68183734
0	16285	855809.878274914873	21795.390294981
0	16610	872593.291209661468	16783.412934747
0	17003	893395.948796533115	20802.657586872
0	17413	914722.445647115887	21326.496850583
0	17844	936357.168742921274	21634.723095805
0	18203	954647.721859859376	18290.553116938
0	18543	972627.627648529671	17979.90578867
0	18913	991911.965274950565	19284.337626421
0	19399	1016882.086580386463	24970.121305436
0	19774	1037415.75429844678	20533.66771806
0	20204	1059551.188743906178	22135.434445459
0	20597	1079966.759875416839	20415.571131511
0	20979	1099940.269053680907	19973.509178264
0	21410	1122411.4116282436	22471.142574563
0	21787	1141808.739646920093	19397.328018676
0	22209	1163666.022994788456	21857.283347868
0	22619	1185714.798734639868	22048.775739851
0	22993	1205058.532349998231	19343.733615358
0	23373	1225093.328841263529	20034.796491265
0	23796	1247415.970646892777	22322.641805629
0	24246	1271441.378881456437	24025.408234564
0	24641	1292390.132783213738	20948.753901757
0	25017	1311354.653411661386	18964.520628448
0	25413	1332241.102928412261	20886.449516751
0	25752	1350211.577457958015	17970.474529546
0	26182	1372438.888731412705	22227.311273455
0	26532	1390348.635987611604	17909.747256199
0	27017	1415891.072569065844	25542.436581454
0	27400	1435922.195612685874	20031.12304362
0	27745	1453804.140374413812	17881.944761728
0	28170	1475849.760301178445	22045.619926765
0	28519	1495164.330161525995	19314.569860348
0	28883	1513321.796447737269	18157.466286211
0	29297	1534016.841325792612	20695.044878055
0	29722	1556004.727178486194	21987.885852694
0	30129	1577385.045466711878	21380.318288226
0	30464	1595406.601547962189	18021.55608125
0	30899	1617682.469555293348	22275.868007331
0	31294	1638038.958985707863	20356.489430415
0	31656	1656586.257456801973	18547.298471094
0	32065	1677631.48151035435	21045.224053552
0	32513	1700972.002268303333	23340.520757949
0	32879	1719982.242321828527	19010.240053525
0	33242	1738671.881562215426	18689.639240387
0	33689	1762060.865679290297	23388.984117075
0	34037	1780296.443897998113	18235.578218708
0	34405	1799568.763053277661	19272.31915528
1	330	18005.461260792803	18005.461260793
1	715	38027.584154158836	20022.122893366
1	1127	60049.954838468699	22022.37068431
1	1514	79884.741777903407	19834.786939435
1	1902	100545.634521986366	20660.892744083
1	2295	120769.954436458658	20224.319914472
1	2712	143137.50938989689	22367.554953438
1	3127	165662.703974288905	22525.194584392
1	3524	186031.472289352696	20368.768315064
1	3957	209308.690702775516	23277.218413423
1	4382	231578.599587315717	22269.90888454
1	4792	253734.342701383892	22155.743114068
1	5164	273557.060870574813	19822.718169191
1	5535	292924.567779991802	19367.506909417
1	5968	315963.015762157768	23038.447982166
1	6364	336274.903076584482	20311.887314427
1	6814	360263.283610227554	23988.380533643
1	7167	378579.883665195704	18316.600054968
1	7542	398275.678957114034	19695.795291918
1	7984	420973.231996642465	22697.553039528
1	8379	441754.096684162545	20780.86468752
1	8806	463847.344762645706	22093.248078483
1	9149	481893.39882752397	18046.054064878
1	9545	501952.838731580461	20059.439904056
1	9892	519946.52002758817	17993.681296008
1	10283	540871.930646826562	20925.410619238
1	10703	563631.391325849158	22759.460679023
1	11099	585020.862485747838	21389.471159899
1	11515	606757.728282362277	21736.865796614
1	11903	627234.529201174209	20476.800918812
1	12288	647360.02936586743	20125.500164693
1	12706	669271.264274139012	21911.234908272
1	13044	686429.237005999367	17157.97273186
1	13498	708968.84973195853	22539.612725959
1	13920	731260.537771275326	22291.688039317
1	14304	751181.444587768117	19920.906816493
1	14718	773686.678506201197	22505.233918433
1	15110	794199.367839144609	20512.689332943
1	15544	816518.25877802919	22318.890938885
1	15980	839509.18948953047	22990.930711501
1	16325	857762.280054157672	18253.090564627
1	16716	878425.087907351627	20662.807853194
1	17110	898374.675457365886	19949.587550014
1	17550	921566.799782565872	23192.1243252
1	17919	940290.577882435252	18723.778099869
1	18298	959561.151070171116	19270.573187736
1	18639	977881.699755904346	18320.548685733
1	19010	996886.760261957617	19005.060506053
1	19496	1022329.376478097486	25442.61621614
1	19887	1043230.432940530676	20901.056462433
1	20323	1065672.508938820189	22442.07599829
1	20755	1088146.489903098062	22473.980964278
1	21138	1107983.519008616076	19837.029105518
1	21523	1128022.834615898411	20039.315607282
1	21894	1147522.95542706279	19500.120811164
1	22237	1165210.276313242594	17687.32088618
1	22592	1184289.107765536849	19078.831452294
1	23004	1205917.5023229328	21628.394557396
1	23398	1226605.563335353605	20688.061012421
1	23804	1247826.541181537421	21220.977846184
1	24198	1268921.67897883347	21095.137797296
1	24653	1292962.893365300361	24041.214386467
1	25049	1313132.710026344385	20169.816661044
1	25479	1335477.266376838192	22344.556350494
1	25807	1353391.071923542875	17913.805546705
1	26257	1376534.228066448231	23143.156142905
1	26636	1396131.226287223511	19596.998220775
1	27016	1415812.869385234195	19681.643098011
1	27423	1437160.007261554825	21347.137876321
1	27835	1458603.381454479066	21443.374192924
1	28221	1478600.01820628543	19996.636751806
1	28653	1502077.371652820267	23477.353446535
1	29055	1521651.481068343978	19574.109415524
1	29437	1541316.086402046618	19664.605333703
1	29839	1562606.030366965695	21289.943964919
1	30201	1581397.385298041757	18791.354931076
1	30553	1600106.193837477026	18708.808539435
1	30876	1616502.367839915809	16396.174002439
1	31337	1640458.296334371105	23955.928494455
1	31751	1661306.259581702898	20847.963247332
1	32211	1685107.541254023228	23801.28167232
1	32565	1703758.093878510548	18650.552624487
1	32916	1721771.707936073793	18013.614057563
1	33360	1744884.913204237959	23113.205268164
1	33715	1763334.288734011493	18449.375529774
1	34131	1784937.732268357791	21603.443534346
2	358	19557.920888531954	19557.920888532
2	784	41851.89630731475	22293.975418783
2	1150	61255.287064472217	19403.390757157
2	1558	82402.336340630433	21147.049276158
2	1942	102712.715194327765	20310.378853697
2	2360	124520.390824531218	21807.675630203
2	2757	145796.925718663275	21276.534894132
2	3124	165592.28258184159	19795.356863178
2	3597	190195.32733701637	24603.044755175
2	4011	212000.298789236715	21804.97145222
2	4412	233165.777820395327	21165.479031159
2	4750	251522.918045287974	18357.140224893
2	5106	270404.290613369108	18881.372568081
2	5458	289009.349175263221	18605.058561894
2	5867	310655.718716327129	21646.369541064
2	6246	330493.508319603309	19837.789603276
2	6637	350704.944206401738	20211.435886798
2	7016	371126.847884617779	20421.903678216
2	7400	390968.267037067595	19841.41915245
2	7830	413329.0451774374	22360.77814037
2	8217	433027.660313760899	19698.615136324
2	8603	453443.634528201113	20415.97421444
2	9026	475368.100528721738	21924.466000521
2	9413	495422.552751260849	20054.452222539
2	9821	516361.658916925121	20939.106165664
2	10180	535415.123326121872	19053.464409197
2	10610	558448.004284640818	23032.880958519
2	11056	582502.46703601447	24054.462751374
2	11499	605943.882372113926	23441.415336099
2	11867	625475.707602454401	19531.82523034
2	12251	645326.529802987405	19850.822200533
2	12577	662476.796134142258	17150.266331155
2	12996	684052.99988260964	21576.203748467
2	13359	702123.103423160562	18070.103540551
2	13760	723254.149166867202	21131.045743707
2	14211	746048.842714517446	22794.69354765
2	14643	769681.685897056085	23632.843182539
2	15008	788992.463197675609	19310.77730062
2	15398	809265.42565959979	20272.962461924
2	15717	825762.898664223107	16497.473004623
2	16111	846433.308600797396	20670.409936574
2	16500	866806.251394213256	20372.942793416
2	16971	891810.349262436001	25004.097868223
2	17332	910444.011845626019	18633.66258319
2	17689	928477.384069701742	18033.372224076
2	18095	949441.07872957838	20963.694659877
2	18459	967917.068409151484	18475.989679573
2	18829	987386.425269884146	19469.356860733
2	19255	1009350.960765383296	21964.535495499
2	19662	1031147.513846517634	21796.553081134
2	20052	1051787.341742660014	20639.827896142
2	20459	1072699.946704320706	20912.604961661
2	20894	1095458.155068685401	22758.208364365
2	21250	1114256.704212748545	18798.549144063
2	21605	1132538.827230571868	18282.123017823
2	21997	1152738.16262127376	20199.335390702
2	22420	1175039.360180497274	22301.197559224
2	22852	1197775.962148443903	22736.601967947
2	23275	1219965.86305007815	22189.900901634
2	23645	1239528.404634213185	19562.541584135
2	24057	1261873.462989111541	22345.058354898
2	24499	1284809.79562166624	22936.332632555
2	24878	1304060.494437581044	19250.698815915
2	25284	1325500.261512701517	21439.76707512
2	25660	1345203.129073837891	19702.867561136
2	26031	1364994.794899947129	19791.665826109
2	26438	1385649.997871252829	20655.202971306
2	26850	1407152.010427205946	21502.012555953
2	27283	1430032.756896573244	22880.746469367
2	27725	1452731.276117381765	22698.519220809
2	28162	1475662.071686703838	22930.795569322
2	28602	1499420.008921064564	23757.937234361
2	28996	1518513.655860792043	19093.646939727
2	29430	1541103.217750322204	22589.56188953
2	29852	1563062.313346308788	21959.095595987
2	30234	1583169.517155038325	20107.20380873
2	30607	1602992.281638784468	19822.764483746
2	31041	1625302.577740280093	22310.296101496
2	31454	1646914.956657216089	21612.378916936
2	31889	1668429.534980678138	21514.578323462
2	32240	1686822.158812545379	18392.623831867
2	32641	1707735.624114400847	20913.465301855
2	33031	1727648.932147887674	19913.308033487
2	33460	1750556.896911934158	22907.964764046
2	33775	1766476.840127608878	15919.943215675
2	34177	1787291.116902837669	20814.276775229
3	359	19665.102691389621	19665.10269139
3	704	37619.256683858112	17954.153992468
3	1118	59534.609525115234	21915.352841257
3	1577	83316.219881060538	23781.610355945
3	2025	106965.935616404752	23649.715735344
3	2392	126346.946939360355	19381.011322956
3	2821	149153.972100117247	22807.025160757
3	3279	173488.081405637792	24334.109305521
3	3649	193045.584628125661	19557.503222488
3	4120	217561.846888507728	24516.262260382
3	4551	240986.656326684182	23424.809438176
3	4987	263964.588335598834	22977.932008915
3	5412	286775.046855211275	22810.458519612
3	5802	307426.143988617713	20651.097133406
3	6196	327879.578057094497	20453.434068477
3	6568	347002.12780502627	19122.549747932
3	6932	366579.908999498026	19577.781194472
3	7310	386164.96766125786	19585.05866176
3	7722	407643.195795826643	21478.228134569
3	8143	429507.709203287989	21864.513407461
3	8593	452947.167324833604	23439.458121546
3	8961	471937.770048156416	18990.602723323
3	9351	492344.78609310467	20407.016044948
3	9669	507947.619428741786	15602.833335637
3	10078	529612.536781467538	21664.917352726
3	10441	549383.752097608565	19771.215316141
3	10846	571420.891100890049	22037.139003281
3	11250	592865.662484429825	21444.77138354
3	11683	616012.996864272333	23147.334379843
3	12051	635268.962925067225	19255.966060795
3	12438	655043.965519289543	19775.002594222
3	12755	671594.308690284437	16550.343170995
3	13187	693596.490475698435	22002.181785414
3	13633	716187.710251542802	22591.219775844
3	14061	738762.452717986954	22574.742466444
3	14417	757408.264291822044	18645.811573835
3	14846	780344.24477058935	22935.980478767
3	15251	801648.977113422074	21304.732342833
3	15608	819827.539945836248	18178.562832414
3	16044	842621.06645316824	22793.526507332
3	16445	864099.835565197356	21478.769112029
3	16772	881197.58566981189	17097.750104615
3	17193	903011.832933174523	21814.247263363
3	17564	922343.914811848741	19332.081878674
3	17971	943189.966227044432	20846.051415196
3	18376	963570.573933189818	20380.607706145
3	18679	979985.177494003525	16414.603560814
3	19080	1000683.558902470482	20698.381408467
3	19426	1018284.772087703547	17601.213185233
3	19824	1039742.661435040737	21457.889347337
3	20282	1063326.52110932404	23583.859674283
3	20670	1083734.512914321481	20407.991804997
3	21047	1103618.697155616342	19884.184241295
3	21491	1126620.294054388167	23001.596898772
3	21899	1147624.308001133711	21004.013946746
3	22300	1168394.272403908063	20769.964402774
3	22715	1190614.465536433373	22220.193132525
3	23158	1213886.028349748914	23271.562813316
3	23571	1235583.73953890997	21697.711189161
3	23927	1254482.491214177673	18898.751675268
3	24298	1274073.133602272824	19590.642388095
3	24719	1296284.737551701362	22211.603949429
3	25159	1318990.041251527254	22705.303699826
3	25579	1340850.822575739696	21860.781324212
3	26037	1365210.172538878511	24359.349963139
3	26501	1388861.383775831319	23651.211236953
3	26905	1410065.739363664882	21204.355587834
3	27326	1431976.036224165122	21910.2968605
3	27749	1453988.606526050842	22012.570301886
3	28102	1472574.039349565408	18585.432823515
3	28490	1493508.026721188923	20933.987371624
3	28942	1516157.64896990744	22649.622248719
3	29336	1535959.718295489566	19802.069325582
3	29744	1557426.478877314498	21466.760581825
3	30162	1579172.764160670475	21746.285283356
3	30626	1603939.152648090523	24766.38848742
3	30996	1622957.33074459727	19018.178096507
3	31474	1647778.05192593965	24820.721181342
3	31846	1666135.048782220253	18356.996856281
3	32254	1687583.784786402393	21448.736004182
3	32649	1708028.590668691469	20444.805882289
3	33090	1730674.738668836803	22646.148000145
3	33509	1753100.145308766665	22425.40663993
3	33895	1772852.264963672647	19752.119654906
3	34310	1794568.138316273842	21715.873352601
4	363	19861.975281382912	19861.975281383
4	760	40643.988446798179	20782.013165415
4	1176	62484.503713203597	21840.515266405
4	1540	81632.236218312759	19147.732505109
4	1900	100529.934769263494	18897.698550951
4	2260	119268.512915703474	18738.57814644
4	2662	140739.244572934704	21470.731657231
4	3005	158789.592357119555	18050.347784185
4	3411	180578.515853500008	21788.92349638
4	3792	200778.53847504595	20200.022621546
4	4205	222192.474047653392	21413.935572607
4	4634	245497.698007500747	23305.223959847
4	5066	268160.909395082873	22663.211387582
4	5420	287092.618222231997	18931.708827149
4	5926	313740.867270156763	26648.249047925
4	6344	335587.543075438611	21846.675805282
4	6768	357927.245385129961	22339.702309691
4	7188	379861.31898325405	21934.073598124
4	7561	399325.156375067339	19463.837391813
4	8000	421741.836617351542	22416.680242284
4	8373	441418.99511846717	19677.158501116
4	8681	457702.616879716549	16283.621761249
4	9006	474468.564277282021	16765.947397565
4	9424	496001.049419981466	21532.485142699
4	9836	516985.992813482922	20984.943393501
4	10251	539097.993824514605	22112.001011032
4	10659	561558.649483253294	22460.655658739
4	11084	583981.852272176234	22423.202788923
4	11501	605982.86283260682	22001.010560431
4	11923	628174.1868294776	22191.323996871
4	12307	648298.255083616874	20124.068254139
4	12692	668678.997797775137	20380.742714158
4	13056	687041.53952992061	18362.541732145
4	13473	707640.540137887057	20599.000607966
4	13907	730601.529458770588	22960.989320884
4	14292	750628.101703128838	20026.572244358
4	14722	773874.074042192722	23245.972339064
4	15135	795567.835110705411	21693.761068513
4	15537	816220.24552489172	20652.410414186
4	15872	833910.366348456661	17690.120823565
4	16265	854681.072686216865	20770.70633776
4	16680	876494.174064486359	21813.101378269
4	17078	896780.690955813117	20286.516891327
4	17491	918731.218232656903	21950.527276844
4	17855	937086.29154588569	18355.073313229
4	18273	958017.040766542855	20930.749220657
4	18680	980053.180024260734	22036.139257718
4	19129	1003059.898818726732	23006.718794466
4	19503	1022681.576053379187	19621.677234652
4	19891	1043371.441541123288	20689.865487744
4	20285	1063501.492345123636	20130.050804
4	20696	1085118.338670465251	21616.846325342
4	21104	1106546.000171802095	21427.661501337
4	21436	1123868.87199373459	17322.871821932
4	21793	1142149.589701672174	18280.717707938
4	22189	1162794.207640341576	20644.617938669
4	22660	1187719.644629513008	24925.436989171
4	23109	1211614.894834463581	23895.250204951
4	23489	1231334.020826616422	19719.125992153
4	23765	1245789.430771954457	14455.409945338
4	24227	1270550.712124211816	24761.281352257
4	24690	1294642.405443708519	24091.693319497
4	25091	1315354.86947034962	20712.464026641
4	25476	1335285.002964665291	19930.133494316
4	25890	1358128.378395689764	22843.375431024
4	26314	1379745.31017558195	21616.931779892
4	26707	1400030.52799729642	20285.217821714
4	27137	1422158.938850043459	22128.410852747
4	27563	1444603.694467339784	22444.755617296
4	27970	1465769.323311047751	21165.628843708
4	28375	1487456.022172817153	21686.698861769
4	28799	1509232.196209835947	21776.174037019
4	29200	1528969.838122255297	19737.641912419
4	29602	1549811.735123279635	20841.897001024
4	29975	1569781.929363962394	19970.194240683
4	30348	1589066.732543986424	19284.803180024
4	30770	1611122.782409540511	22056.049865554
4	31154	1631352.42726502488	20229.644855484
4	31515	1649998.600658727948	18646.173393703
4	31923	1670053.63895231872	20055.038293591
4	32319	1690995.218269410687	20941.579317092
4	32730	1712114.488961524477	21119.270692114
4	33078	1730040.30747246012	17925.818510936
4	33432	1749167.556904954983	19127.249432495
4	33831	1769740.071571665033	20572.51466671
4	34272	1792408.61091844287	22668.539346778
5	376	20505.175755824898	20505.175755825
5	791	42329.882050515159	21824.70629469
5	1207	64166.025628801444	21836.143578286
5	1645	86672.625060542497	22506.599431741
5	2068	109171.315966174017	22498.690905632
5	2487	131170.706554781657	21999.390588608
5	2918	154032.630283967603	22861.923729186
5	3334	176533.160014660113	22500.529730693
5	3692	195496.451496728712	18963.291482069
5	4043	213520.188317634181	18023.736820905
5	4393	232094.904997735302	18574.716680101
5	4825	255273.257916094754	23178.352918359
5	5207	275839.396002818852	20566.138086724
5	5614	297064.177654800026	21224.781651981
5	6014	318383.349034236766	21319.171379437
5	6403	338576.680769096154	20193.331734859
5	6851	362219.578701769961	23642.897932674
5	7285	384746.893344330632	22527.314642561
5	7695	406482.137001701664	21735.243657371
5	8133	428681.517169461623	22199.38016776
5	8548	450641.002812422851	21959.485642961
5	8981	473004.953439580318	22363.950627157
5	9372	493293.102177092848	20288.148737513
5	9782	514294.12483074707	21001.022653654
5	10152	533819.227281957913	19525.102451211
5	10596	557696.097190724736	23876.869908767
5	11063	582896.048327093065	25199.951136368
5	11430	602347.156415227856	19451.108088135
5	11753	619453.793592634669	17106.637177407
5	12152	640494.019352481761	21040.225759847
5	12574	662345.437782467406	21851.418429986
5	12986	683535.927025484917	21190.489243018
5	13450	706544.264432159316	23008.337406674
5	13842	727514.51520819689	20970.250776038
5	14227	746953.04225175648	19438.52704356
5	14644	769714.951005298711	22761.908753542
5	14974	786964.949805988066	17249.998800689
5	15413	809784.764532814803	22819.814726827
5	15792	829624.157399288448	19839.392866474
5	16191	850621.571772149835	20997.414372861
5	16584	871467.537056305518	20845.965284156
5	17006	893606.049948488435	22138.512892183
5	17433	915754.031286109313	22147.981337621
5	17819	935173.062683316022	19419.031397207
5	18168	953246.516179293469	18073.453495977
5	18629	977498.388439882622	24251.872260589
5	18987	995700.943341711612	18202.554901829
5	19373	1015503.716983599666	19802.773641888
5	19732	1035191.0875928589	19687.370609259
5	20124	1055546.812215820035	20355.724622961
5	20538	1076846.751896431751	21299.939680612
5	20977	1099861.058722017416	23014.306825586
5	21362	1119874.155899277042	20013.09717726
5	21839	1144519.256024155854	24645.100124879
5	22238	1165252.272340818398	20733.016316663
5	22651	1187311.118911835459	22058.846571017
5	23081	1210172.784413094729	22861.665501259
5	23436	1228748.259116197103	18575.474703102
5	23880	1252033.156318590147	23284.897202393
5	24230	1270656.777926953613	18623.621608363
5	24564	1288415.863928035937	17759.086001082
5	24995	1310108.124765451172	21692.260837415
5	25375	1330198.728500981923	20090.603735531
5	25826	1354465.122270514366	24266.393769532
5	26223	1374671.958824037686	20206.836553523
5	26648	1396797.286190441922	22125.327366404
5	27043	1417279.389371280672	20482.103180839
5	27432	1437556.811577058513	20277.422205778
5	27785	1455904.547850368664	18347.73627331
5	28167	1475800.31375528791	19895.765904919
5	28539	1496109.401526628184	20309.08777134
5	28999	1518757.893440779422	22648.491914151
5	29435	1541235.299992840861	22477.406552061
5	29830	1562213.147761649577	20977.847768809
5	30292	1586154.350726050452	23941.202964401
5	30625	1603908.658211818094	17754.307485768
5	31028	1624563.878884655554	20655.220672837
5	31380	1643002.255884348546	18438.376999693
5	31803	1663622.573426342701	20620.317541994
5	32265	1688187.260904000274	24564.687477658
5	32679	1709746.109830099292	21558.848926099
5	33095	1730791.504785069402	21045.39495497
5	33510	1753110.693140770448	22319.188355701
5	33930	1774661.536483559899	21550.843342789
5	34359	1797140.220073401141	22478.683589841
6	383	20817.26776447613	20817.267764476
6	859	45511.073802597826	24693.806038122
6	1248	66399.311320739806	20888.237518142
6	1633	86116.465355618869	19717.154034879
6	2022	106676.353182178004	20559.887826559
6	2439	128842.305033467725	22165.95185129
6	2820	149121.86825566461	20279.563222197
6	3212	170098.504070774668	20976.63581511
6	3614	191263.935515773499	21165.431444999
6	4032	212993.577856686916	21729.642340913
6	4417	233534.299977938665	20540.722121252
6	4791	253668.932557920948	20134.632579982
6	5290	280178.039861144525	26509.107303224
6	5650	299142.666162690177	18964.626301546
6	6063	320784.844206296871	21642.178043607
6	6520	344473.913862020743	23689.069655724
6	6958	367798.579314141571	23324.665452121
6	7424	392194.82882064771	24396.249506506
6	7804	412073.959464440163	19879.130643792
6	8144	429542.763538425831	17468.804073986
6	8471	446337.065359926825	16794.301821501
6	8911	469283.203781582458	22946.138421656
6	9390	494235.152857261752	24951.949075679
6	9798	515102.92491212026	20867.772054859
6	10168	534811.348530580335	19708.42361846
6	10601	557862.268432625616	23050.919902045
6	10947	576518.026069854435	18655.757637229
6	11313	596332.9160426511	19814.889972797
6	11717	617669.209577841734	21336.293535191
6	12125	639039.714186801627	21370.50460896
6	12604	663997.137244208769	24957.423057407
6	13043	686335.128754028173	22337.991509819
6	13447	706236.8486418855	19901.719887857
6	13878	729217.151247896309	22980.302606011
6	14246	748070.615878561569	18853.464630665
6	14655	770226.635674014745	22156.019795453
6	15043	790731.147070764624	20504.51139675
6	15460	812202.48117274611	21471.334101981
6	15844	832461.473159375664	20258.99198663
6	16174	849659.076680196514	17197.603520821
6	16624	873460.693396744386	23801.616716548
6	16986	892307.650748058291	18846.957351314
6	17359	911898.770471219975	19591.119723162
6	17816	935102.648308966383	23203.877837746
6	18255	957242.26458056372	22139.616271597
6	18592	975157.386373495762	17915.121792932
6	18972	994915.691392729141	19758.305019233
6	19404	1017024.691825965504	22109.000433236
6	19768	1036987.358778482388	19962.666952517
6	20176	1058017.291048890995	21029.932270409
6	20556	1077720.451529254291	19703.160480363
6	20946	1098187.036653282211	20466.585124028
6	21327	1118096.896015922631	19909.85936264
6	21733	1139163.860981119888	21066.964965197
6	22085	1157248.670302215124	18084.809321095
6	22459	1177180.946009117271	19932.275706902
6	22829	1196488.239016849641	19307.293007732
6	23268	1219812.920965603649	23324.681948754
6	23671	1241051.858331542559	21238.937365939
6	24050	1261450.614543864604	20398.756212322
6	24490	1284384.145053452915	22933.530509588
6	24930	1306817.95292696926	22433.807873516
6	25353	1329113.069186685714	22295.116259716
6	25771	1351069.890261744256	21956.821075059
6	26173	1371942.877722554952	20872.987460811
6	26554	1391744.664306286837	19801.786583732
6	26941	1411934.329987736537	20189.66568145
6	27331	1432325.516333221578	20391.186345485
6	27727	1452858.179481234523	20532.663148013
6	28118	1473341.399529716122	20483.220048482
6	28517	1494989.295075880487	21647.895546164
6	28891	1513555.755211156922	18566.460135276
6	29240	1530925.138995051513	17369.383783895
6	29598	1549669.389361166527	18744.250366115
6	30054	1573735.059767263144	24065.670406097
6	30476	1596056.652234750936	22321.592467488
6	30873	1616349.045529961724	20292.393295211
6	31297	1638250.893694698022	21901.848164736
6	31762	1661694.007755140921	23443.114060443
6	32180	1683635.703580104895	21941.695824964
6	32551	1702972.499785828554	19336.796205724
6	32982	1725060.184915666622	22087.685129838
6	33383	1746262.384328409254	21202.199412743
6	33788	1767211.181931663463	20948.797603254
6	34190	1787929.261842160644	20718.079910497
7	385	20916.278621996754	20916.278621997
7	821	43654.413270181979	22738.134648185
7	1174	62329.351567430427	18674.938297248
7	1583	83615.880619967362	21286.529052537
7	1966	104180.308950366459	20564.428330399
7	2409	127224.606375326411	23044.29742496
7	2850	150542.193446774045	23317.587071448
7	3246	171912.798195029619	21370.604748256
7	3669	194256.765248836029	22343.967053806
7	4061	214625.40594802705	20368.640699191
7	4484	237058.305647922694	22432.899699896
7	4832	255489.505944424326	18431.200296502
7	5235	277024.138418608364	21534.632474184
7	5665	300002.483586198669	22978.34516759
7	5988	317130.795572767984	17128.311986569
7	6370	336840.323372161967	19709.527799394
7	6775	358188.739914097846	21348.416541936
7	7191	380049.088301835605	21860.348387738
7	7587	400745.398655533815	20696.310353698
7	7953	419622.628393233781	18877.2297377
7	8395	442532.378450967402	22909.750057734
7	8772	462169.651426957021	19637.27297599
7	9227	485944.364007096771	23774.71258014
7	9614	505324.986602878235	19380.622595781
7	10046	527982.02695499644	22657.040352118
7	10465	550656.317295623054	22674.290340627
7	10868	572685.9505361645	22029.633240541
7	11225	591445.561480941296	18759.610944777
7	11658	614646.476249559829	23200.914768619
7	12072	636443.56541172606	21797.089162166
7	12522	659566.152279730935	23122.586868005
7	12967	682699.688768712855	23133.536488982
7	13307	699424.565481254883	16724.876712542
7	13694	719536.440385272778	20111.874904018
7	14065	738997.304922435486	19460.864537163
7	14430	758049.579889979267	19052.274967544
7	14874	781968.286160146872	23918.706270168
7	15297	804071.422348148246	22103.136188001
7	15712	825490.927610895655	21419.505262747
7	16096	845535.948690609134	20045.021079713
7	16482	865935.849866014966	20399.901175406
7	16938	889840.87009658112	23905.020230566
7	17321	909853.504205471901	20012.634108891
7	17744	931411.485940567284	21557.981735095
7	18191	954173.552792868643	22762.066852301
7	18655	978615.633093752035	24442.080300883
7	19014	997080.188580555911	18464.555486804
7	19371	1015405.324643128621	18325.136062573
7	19769	1037049.089331762006	21643.764688633
7	20172	1057825.341359130183	20776.252027368
7	20530	1076350.606970605517	18525.265611475
7	20903	1096028.653220390047	19678.046249785
7	21298	1116708.51179002792	20679.858569638
7	21749	1139959.242871496907	23250.731081469
7	22112	1158513.756735599681	18554.513864103
7	22509	1179907.526063150809	21393.769327551
7	22895	1200336.960940039801	20429.434876889
7	23316	1222095.503256423486	21758.542316384
7	23735	1244422.495276783681	22326.99202036
7	24166	1267406.390160438693	22983.894883655
7	24568	1288573.84007528899	21167.44991485
7	25051	1313214.662770042287	24640.822694753
7	25408	1332086.629767785873	18871.966997744
7	25823	1354028.112022555528	21941.48225477
7	26264	1377020.203232998124	22992.091210443
7	26677	1398458.96124606962	21438.758013071
7	27030	1416607.166958041591	18148.205711972
7	27474	1439851.37560742452	23244.208649383
7	27828	1458156.239333096998	18304.863725672
7	28240	1479717.07219351094	21560.832860414
7	28643	1501390.451227314881	21673.379033804
7	29066	1522269.562809728197	20879.111582413
7	29460	1542830.582812428586	20561.0200027
7	29888	1565035.994079429772	22205.411267001
7	30313	1587241.654359502832	22205.660280073
7	30774	1611392.69804663502	24151.043687132
7	31156	1631410.050609614817	20017.35256298
7	31554	1651917.133697890794	20507.083088276
7	31934	1670751.719344058192	18834.585646167
7	32248	1687226.195507682977	16474.476163625
7	32688	1710422.893420793237	23196.69791311
7	33108	1731612.395357689941	21189.501936897
7	33475	1751259.651334723578	19647.255977034
7	33965	1776449.847845477174	25190.196510754
7	34329	1795432.964067673433	18983.116222196
8	388	20956.300599267709	20956.300599268
8	811	43091.629045084124	22135.328445816
8	1223	64925.708518596372	21834.079473512
8	1682	88668.50757168141	23742.799053085
8	2053	108479.127415688717	19810.619844007
8	2499	131730.928303208213	23251.800887519
8	2920	154328.626501956036	22597.698198748
8	3346	177382.811684045024	23054.185182089
8	3679	194741.760784992966	17358.949100948
8	4084	215763.634065398965	21021.873280406
8	4479	236767.106157029067	21003.47209163
8	4856	256829.745561699401	20062.63940467
8	5262	278710.836473735999	21881.090912037
8	5645	298988.381651113761	20277.545177378
8	6043	319719.395414111226	20731.013762997
8	6415	339128.564198152185	19409.168784041
8	6819	360468.988485401522	21340.424287249
8	7153	378028.432915569308	17559.444430168
8	7548	398606.388080399511	20577.95516483
8	7946	419130.62086701396	20524.232786614
8	8354	440382.048916071684	21251.428049058
8	8769	462004.632330383207	21622.583414312
8	9202	484682.43890453599	22677.806574153
8	9608	505065.73123543061	20383.292330895
8	10008	525887.396019883489	20821.664784453
8	10378	546002.614191267675	20115.218171384
8	10732	565092.767962021791	19090.153770754
8	11110	585473.114349413704	20380.346387392
8	11572	609916.145258699585	24443.030909286
8	12009	632507.779705803886	22591.634447104
8	12454	655935.040879994677	23427.261174191
8	12840	676072.898037848111	20137.857157853
8	13248	696588.193408213606	20515.295370365
8	13672	718332.600787980533	21744.407379767
8	14059	738668.601745390387	20336.00095741
8	14445	758759.759298409392	20091.157553019
8	14824	779116.345275077098	20356.585976668
8	15264	802331.07314212254	23214.727867045
8	15678	823761.007051100088	21429.933908978
8	16133	847128.688497003233	23367.681445903
8	16464	865044.651492149634	17915.962995146
8	16894	887595.895117730901	22551.243625581
8	17259	906507.833466050285	18911.938348319
8	17605	924182.29063844781	17674.457172398
8	17996	944360.082345432676	20177.791706985
8	18403	964896.669850917609	20536.587505485
8	18804	986219.48172210258	21322.811871185
8	19182	1005950.507676112547	19731.02595401
8	19547	1025167.851234320636	19217.343558208
8	19940	1045721.681287279439	20553.830052959
8	20319	1065416.48533567795	19694.804048399
8	20748	1087676.29180359663	22259.806467919
8	21171	1109783.619455527607	22107.327651931
8	21536	1128588.578886701819	18804.959431174
8	21982	1152068.452969892046	23479.87408319
8	22397	1173650.253633619384	21581.800663727
8	22811	1195785.196882789124	22134.94324917
8	23253	1218945.983917918161	23160.787035129
8	23665	1240756.976489327024	21810.992571409
8	24062	1262124.267597100809	21367.291107774
8	24425	1280931.234740652257	18806.967143551
8	24858	1302929.90718944941	21998.672448797
8	25182	1320185.756821185468	17255.849631736
8	25603	1342257.713222759897	22071.956401574
8	25991	1363107.766771107103	20850.053548347
8	26320	1379896.493831765962	16788.727060659
8	26767	1403001.392222126142	23104.89839036
8	27142	1422542.402728926515	19541.0105068
8	27514	1442089.439233881548	19547.036504955
8	27815	1457486.318492679985	15396.879258798
8	28204	1477806.89664836986	20320.57815569
8	28621	1500523.644319153521	22716.747670784
8	28976	1517783.454890130221	17259.810570977
8	29373	1537717.795653850908	19934.340763721
8	29804	1560783.398261061076	23065.60260721
8	30206	1581730.285632074949	20946.887371014
8	30595	1602429.019170580572	20698.733538506
8	30971	1621792.391396477028	19363.372225896
8	31387	1643289.561242214549	21497.169845738
8	31788	1662887.332516838941	19597.771274624
8	32217	1685573.435515514723	22686.102998676
8	32546	1702779.326154850572	17205.890639336
8	32929	1722467.034197528996	19687.708042678
8	33372	1745486.326228827389	23019.292031298
8	33772	1766408.203366678362	20921.877137851
8	34168	1786724.063839414312	20315.860472736
9	394	21391.762161045337	21391.762161045
9	792	42339.89429776557	20948.13213672
9	1217	64622.914195060734	22283.019897295
9	1589	83851.680416730237	19228.76622167
9	2065	109117.584985331637	25265.904568601
9	2469	130061.868477263494	20944.283491932
9	2876	152031.804399099211	21969.935921836
9	3284	173828.500783536595	21796.696384437
9	3636	192447.612260933976	18619.111477397
9	3979	210397.475618636246	17949.863357702
9	4429	234063.607835210872	23666.132216575
9	4887	258818.65996937269	24755.052134162
9	5259	278586.497303447704	19767.837334075
9	5641	298699.960025958739	20113.462722511
9	6000	317890.298961312534	19190.338935354
9	6467	341573.536592186453	23683.237630874
9	6871	363290.295424754757	21716.758832568
9	7287	384872.79234139717	21582.496916642
9	7686	406066.705678473254	21193.913337076
9	8100	426814.653465757178	20747.947787284
9	8517	449151.05745289478	22336.403987138
9	8917	469498.688437510314	20347.630984616
9	9279	488638.101346325164	19139.412908815
9	9674	508105.552827590182	19467.451481265
9	10069	529268.540006596635	21162.987179006
9	10466	550745.164647814859	21476.624641218
9	10819	569796.580054331615	19051.415406517
9	11170	588583.599480218299	18787.019425887
9	11536	608085.179837420627	19501.580357202
9	11941	629085.265273461164	21000.085436041
9	12309	648471.261263592213	19385.995990131
9	12690	668583.23799690702	20111.976733315
9	13031	685727.234987542081	17143.996990635
9	13457	706995.184750179809	21267.949762638
9	13880	729259.732822654817	22264.548072475
9	14285	750146.382329869131	20886.649507214
9	14621	768444.224376697143	18297.842046828
9	15019	789713.500311831063	21269.275935134
9	15411	809732.303090742843	20018.802778912
9	15796	829725.413026171793	19993.109935429
9	16161	849028.086401405803	19302.673375234
9	16569	870480.926525197051	21452.840123791
9	17036	894940.898278146112	24459.971752949
9	17444	916483.174734748964	21542.276456603
9	17843	936310.372238396733	19827.197503648
9	18291	959230.103405658224	22919.731167261
9	18694	980764.571726205828	21534.468320548
9	19132	1003247.084896545926	22482.51317034
9	19512	1023330.671887029965	20083.586990484
9	19961	1046976.485526887772	23645.813639858
9	20300	1064093.524247990065	17117.038721102
9	20701	1085278.644035104738	21185.119787115
9	21168	1109755.56235690609	24476.918321801
9	21585	1131358.648488647385	21603.086131741
9	21988	1152299.057926051401	20940.409437404
9	22404	1173973.077290807934	21674.019364757
9	22783	1194213.970859767952	20240.89356896
9	23223	1217718.585786642593	23504.614926875
9	23696	1242393.943137140101	24675.357350498
9	24124	1265154.195338138469	22760.252200998
9	24491	1284524.003343656752	19369.808005518
9	24886	1304360.886482172737	19836.883138516
9	25348	1328838.497835095135	24477.611352922
9	25706	1347633.656140300539	18795.158305205
9	26061	1366414.215037250053	18780.55889695
9	26416	1384539.210686576647	18124.995649327
9	26867	1408299.626164022	23760.415477445
9	27289	1430269.580536871319	21969.954372849
9	27660	1449587.782333837924	19318.201796967
9	28028	1468775.929296738571	19188.146962901
9	28382	1487817.867378587938	19041.938081849
9	28790	1508919.210924301399	21101.343545713
9	29109	1524299.019598052942	15379.808673752
9	29470	1543246.110913809494	18947.091315757
9	29874	1564143.739709048639	20897.628795239
9	30258	1584284.887963207544	20141.148254159
9	30616	1603457.338858977998	19172.45089577
9	31035	1624991.776624694574	21534.437765717
9	31389	1643450.690061086899	18458.913436392
9	31816	1664370.205421350076	20919.515360263
9	32208	1684964.612567564587	20594.407146215
9	32722	1711883.604023954948	26918.99145639
9	33079	1730043.851476628453	18160.247452674
9	33419	1748236.456573940936	18192.605097312
9	33830	1769655.501057277553	21419.044483337
9	34240	1790764.470971888051	21108.96991461
10	395	21399.934587534516	21399.934587535
10	847	44957.282006274909	23557.34741874
10	1246	66325.473770499232	21368.191764224
10	1655	87093.365719774742	20767.891949276
10	2035	107562.005142797721	20468.639423023
10	2459	129662.463981541812	22100.458838744
10	2883	152335.709458217033	22673.245476675
10	3307	175052.391994977382	22716.68253676
10	3695	195600.412457948564	20548.020462971
10	4147	218913.65379095079	23313.241333002
10	4544	240469.493534532392	21555.839743582
10	4964	262623.908921959828	22154.415387427
10	5344	283176.071838126538	20552.162916167
10	5692	301536.428160849049	18360.356322723
10	6067	320955.863444949524	19419.4352841
10	6456	341195.545338559923	20239.68189361
10	6828	360977.804127149316	19782.258788589
10	7213	381347.70199796188	20369.897870813
10	7659	404509.007353568482	23161.305355607
10	8007	422110.454906243865	17601.447552675
10	8386	442137.260925024782	20026.806018781
10	8753	461391.639353823884	19254.378428799
10	9160	482385.168928303793	20993.52957448
10	9583	503698.043041164096	21312.87411286
10	10010	526085.216419422107	22387.173378258
10	10388	546521.700389566874	20436.483970145
10	10778	567764.222520869269	21242.522131302
10	11104	585172.586032538719	17408.363511669
10	11543	608264.318694127773	23091.732661589
10	11959	630268.792755436206	22004.474061308
10	12362	651440.616240841394	21171.823485405
10	12749	671378.991495352299	19938.375254511
10	13135	690952.562255552101	19573.5707602
10	13574	713223.783883731875	22271.22162818
10	14007	735783.769981004363	22559.986097272
10	14388	755778.778058127571	19995.008077123
10	14769	776184.532194980492	20405.754136853
10	15268	802490.127266384733	26305.595071404
10	15634	821286.23248881202	18796.105222427
10	16056	843432.661179103965	22146.428690292
10	16476	865570.920056314285	22138.25887721
10	16882	886920.06165627398	21349.14159996
10	17291	908176.136453985316	21256.074797711
10	17668	927518.895549117666	19342.759095132
10	18019	945440.808711340729	17921.913162223
10	18441	967055.216577951874	21614.407866611
10	18912	991692.6291156561	24637.412537704
10	19261	1009685.227093636141	17992.59797798
10	19652	1030660.552266170354	20975.325172534
10	20095	1053894.844502792777	23234.292236622
10	20456	1072511.607648222793	18616.76314543
10	20915	1096453.135406132875	23941.52775791
10	21309	1117329.161206260412	20876.025800128
10	21671	1135768.280593911277	18439.119387651
10	22068	1156372.547516715807	20604.266922805
10	22516	1180143.687906093059	23771.140389377
10	22947	1202904.869779246024	22761.181873153
10	23288	1220680.416066432471	17775.546287186
10	23658	1240429.132422432404	19748.716356
10	24069	1262364.075235091251	21934.942812659
10	24460	1282691.49340479645	20327.418169705
10	24864	1303473.784688743868	20782.291283947
10	25225	1322406.31313610367	18932.52844736
10	25642	1344219.318051939008	21813.004915835
10	26057	1366083.893658360577	21864.575606422
10	26455	1386625.914607546403	20542.020949186
10	26866	1408294.610097189548	21668.695489643
10	27291	1430323.864890961093	22029.254793772
10	27680	1450499.273530324109	20175.408639363
10	28094	1472347.34135249176	21848.067822168
10	28487	1493440.437243785829	21093.095891294
10	28881	1513186.794953537297	19746.357709751
10	29266	1532433.196136495224	19246.401182958
10	29689	1554193.454037071333	21760.257900576
10	30005	1571225.591841736005	17032.137804665
10	30406	1592155.88942449553	20930.29758276
10	30862	1615712.671106332112	23556.781681837
10	31211	1634134.197412873751	18421.526306542
10	31561	1652208.883079700306	18074.685666827
10	31918	1669895.345301716722	17686.462222016
10	32281	1688884.558040416003	18989.212738699
10	32689	1710442.163420375572	21557.60537996
10	33099	1731045.161801506901	20602.998381131
10	33480	1751453.885092749399	20408.723291242
10	33901	1773267.576594371487	21813.691501622
10	34302	1793987.990361638507	20720.413767267
11	399	21588.231904199349	21588.231904199
11	794	42383.82688025013	20795.594976051
11	1146	60934.084437671122	18550.257557421
11	1506	79489.019250380814	18554.93481271
11	1880	99345.841021975512	19856.821771595
11	2265	119391.143618733633	20045.302596758
11	2686	141801.871296018377	22410.727677285
11	3040	160881.26617914533	19079.394883127
11	3473	183371.97947502138	22490.713295876
11	3863	204300.509126856944	20928.529651836
11	4210	222372.404603753263	18071.895476896
11	4548	240797.770292032536	18425.365688279
11	4921	260437.758942134706	19639.988650102
11	5342	283128.115215688042	22690.356273553
11	5747	304049.742849078061	20921.62763339
11	6190	327672.906418796662	23623.163569719
11	6667	352494.577151723242	24821.670732927
11	7064	373215.10555234276	20720.52840062
11	7412	391756.788085796911	18541.682533454
11	7818	412752.268773503645	20995.480687707
11	8203	432248.839428531983	19496.570655028
11	8622	454566.156403860125	22317.316975328
11	9087	478630.974532105077	24064.818128245
11	9460	497818.674302310733	19187.699770206
11	9838	517070.419781841391	19251.745479531
11	10216	537376.174684963245	20305.754903122
11	10548	555087.595597375243	17711.420912412
11	10911	574774.347690981876	19686.752093607
11	11345	598230.732816970039	23456.385125988
11	11726	618178.726277779853	19947.99346081
11	12121	638841.79645241245	20663.070174633
11	12498	658264.919045381315	19423.122592969
11	12883	678314.300077850999	20049.38103247
11	13283	698306.13778671257	19991.837708862
11	13650	717037.681007408613	18731.543220696
11	14075	739507.980975788164	22470.29996838
11	14473	760409.378484240812	20901.397508453
11	14885	782669.505864847533	22260.127380607
11	15275	802929.881155723788	20260.375290876
11	15679	823820.46336040375	20890.58220468
11	16163	849134.554427582858	25314.091067179
11	16566	870356.817806605337	21222.263379022
11	16958	890928.33681043712	20571.519003832
11	17325	910033.380536595448	19105.043726158
11	17730	930704.127814737239	20670.747278142
11	18100	949853.415640653203	19149.287825916
11	18537	972032.039107172844	22178.62346652
11	18971	994885.40603255397	22853.366925381
11	19396	1016674.288097187043	21788.882064633
11	19790	1038050.454955897393	21376.16685871
11	20199	1059144.615432364037	21094.160476467
11	20541	1077033.374722930705	17888.759290567
11	20929	1097369.255730765974	20335.881007835
11	21341	1119016.749212402025	21647.493481636
11	21670	1135745.790190994848	16729.040978593
11	22034	1154518.444237648619	18772.654046654
11	22451	1176702.189569128789	22183.74533148
11	22862	1198326.608485076691	21624.418915948
11	23218	1217286.71887319081	18960.110388114
11	23618	1238029.25048174814	20742.531608557
11	24052	1261532.641544938206	23503.39106319
11	24502	1285038.146273698778	23505.504728761
11	24926	1306590.813933173314	21552.667659475
11	25351	1329066.173609462688	22475.359676289
11	25735	1348915.750091197091	19849.576481734
11	26126	1369486.386721604626	20570.636630408
11	26504	1388987.32002556802	19500.933303963
11	26912	1410556.264039361974	21568.944013794
11	27310	1431591.145030106545	21034.880990745
11	27719	1452553.449188824872	20962.304158718
11	28183	1476688.91007837387	24135.460889549
11	28623	1500570.854013087362	23881.943934713
11	29053	1521607.657157234052	21036.803144147
11	29476	1543525.02893807846	21917.371780844
11	29920	1566789.45730137653	23264.428363298
11	30342	1588684.240351547632	21894.783050171
11	30794	1612327.183562214636	23642.943210667
11	31165	1631846.383426222172	19519.199864008
11	31543	1651283.822730300171	19437.439304078
11	31974	1672747.078819200554	21463.2560889
11	32344	1692258.198808995235	19511.119989795
11	32684	1710106.044766609717	17847.845957614
11	33089	1730478.861208423201	20372.816441813
11	33457	1750315.452915150833	19836.591706728
11	33853	1770907.726478297425	20592.273563147
11	34175	1787189.550521085203	16281.824042788
12	400	21627.538914210167	21627.53891421
12	790	42303.677397896541	20676.138483686
12	1181	62757.527624024086	20453.850226128
12	1629	85968.472994165505	23210.945370141
12	2018	106510.885766590957	20542.412772425
12	2393	126355.169529095308	19844.283762504
12	2842	149920.67877121737	23565.509242122
12	3241	171561.758251860756	21641.079480643
12	3676	194602.973768021931	23041.215516161
12	4081	215479.54916395249	20876.575395931
12	4557	241311.142142163611	25831.592978211
12	4983	263687.850062968233	22376.707920805
12	5400	285978.605850250487	22290.755787282
12	5764	304899.620630778397	18921.014780528
12	6223	329359.590589301689	24459.969958523
12	6611	349426.036563352714	20066.445974051
12	7012	370846.249786438457	21420.213223086
12	7352	388610.388560802715	17764.138774364
12	7748	409229.846951784606	20619.458390982
12	8173	430826.867114519741	21597.020162735
12	8619	454444.257528288334	23617.390413769
12	9015	474839.844466536354	20395.586938248
12	9458	497729.160931776326	22889.31646524
12	9887	519542.431334615732	21813.270402839
12	10273	540345.999783603522	20803.568448988
12	10727	564765.537747298417	24419.537963695
12	11106	585327.490929281392	20561.953181983
12	11548	608700.456244871073	23372.96531559
12	11979	631202.473848592545	22502.017603721
12	12415	653991.332498844771	22788.858650252
12	12783	673113.764626323304	19122.432127479
12	13203	694456.582138314903	21342.817511992
12	13618	715497.065032250309	21040.482893935
12	14017	736156.038356828565	20658.973324578
12	14407	756984.764198656258	20828.725841828
12	14787	777213.952173711797	20229.187975056
12	15159	796824.32102586615	19610.368852154
12	15633	821182.841309811988	24358.520283946
12	16062	843689.749870682205	22506.90856087
12	16478	865703.975432901715	22014.22556222
12	16868	886282.939720200448	20578.964287299
12	17189	902859.082541079335	16576.142820879
12	17626	925329.790603369552	22470.70806229
12	18084	948902.724431594911	23572.933828225
12	18502	970165.092232287939	21262.367800693
12	18929	992861.565719707948	22696.47348742
12	19391	1016425.194817129603	23563.629097422
12	19740	1035466.1304495531	19040.935632423
12	20157	1057186.096088960847	21719.965639408
12	20577	1078927.366420277477	21741.270331317
12	20936	1097701.703967992301	18774.337547715
12	21313	1117582.222157972954	19880.518189981
12	21729	1138948.65855225371	21366.436394281
12	22126	1159184.675452765168	20236.016900511
12	22498	1179197.684580227454	20013.009127462
12	22878	1199247.805774211978	20050.121193985
12	23257	1219119.223543326465	19871.417769114
12	23655	1240152.012191014461	21032.788647688
12	24120	1265081.487952033156	24929.475761019
12	24507	1285423.527549253877	20342.039597221
12	24884	1304210.137394140577	18786.609844887
12	25264	1324590.126829105533	20379.989434965
12	25732	1348784.921367536404	24194.794538431
12	26129	1369847.518662689361	21062.597295153
12	26497	1388771.354554337558	18923.835891648
12	26949	1412435.505779693014	23664.151225355
12	27272	1429561.929142917619	17126.423363225
12	27716	1452429.146889131631	22867.217746214
12	28132	1474074.907521600952	21645.760632469
12	28515	1494793.102801661128	20718.19528006
12	28872	1512675.433479482428	17882.330677821
12	29199	1528959.505414939606	16284.071935457
12	29547	1546969.998783781316	18010.493368842
12	29950	1568622.107910923785	21652.109127142
12	30367	1590185.657400288745	21563.549489365
12	30739	1609696.394437691323	19510.737037403
12	31132	1629897.726475959772	20201.332038268
12	31549	1651592.465596972162	21694.739121012
12	31894	1668693.628349457998	17101.162752486
12	32302	1690193.985480233228	21500.357130775
12	32725	1711922.7659805912	21728.780500358
12	33153	1734077.383344294641	22154.617363703
12	33599	1757466.057674260951	23388.674329966
12	34033	1780081.889000139343	22615.831325878
13	410	22397.926559555346	22397.926559555
13	788	42238.027419894938	19840.10086034
13	1158	61586.237682611687	19348.210262717
13	1568	82871.449308819147	21285.211626207
13	2037	107573.394893319357	24701.9455845
13	2479	130612.842739094061	23039.447845775
13	2824	149333.77334440594	18720.930605312
13	3163	167514.843028737244	18181.069684331
13	3588	189780.923877144247	22266.080848407
13	3931	207971.82995639743	18190.906079253
13	4364	230520.146322087402	22548.31636569
13	4742	251196.600188850445	20676.453866763
13	5115	270890.890287584648	19694.290098734
13	5476	289994.498034124288	19103.60774654
13	5852	309807.634153752613	19813.136119628
13	6233	329719.963359762941	19912.32920601
13	6647	351414.628671482232	21694.665311719
13	7003	370331.328960252021	18916.70028877
13	7332	387410.312026622733	17078.983066371
13	7679	405537.322585587419	18127.010558965
13	8091	426442.108066636168	20904.785481049
13	8521	449257.92524451393	22815.817177878
13	8932	470357.588960090687	21099.663715577
13	9290	489175.454584532453	18817.865624442
13	9694	509234.325098921582	20058.870514389
13	10072	529295.286368345882	20060.961269424
13	10499	552392.197699053257	23096.911330707
13	10931	575806.183005566756	23413.985306513
13	11321	596740.965328412181	20934.782322845
13	11711	617366.443883394875	20625.478554983
13	12109	638341.682893456945	20975.239010062
13	12502	658489.409054280316	20147.726160823
13	12973	682977.402421413049	24487.993367133
13	13371	702622.252873610766	19644.850452198
13	13705	720198.26315890538	17576.010285295
13	14081	739871.226998744592	19672.963839839
13	14492	761290.560166002312	21419.333167258
13	14840	780053.658053046155	18763.097887044
13	15176	797618.790101143595	17565.132048097
13	15590	819051.34008172906	21432.549980585
13	16025	841841.701681609333	22790.36159988
13	16399	861723.96284015856	19882.261158549
13	16756	880200.226682704011	18476.263842545
13	17141	900246.163546457026	20045.936863753
13	17606	924185.360685456617	23939.197139
13	17960	942470.422841725012	18285.062156268
13	18404	964930.708594154643	22460.28575243
13	18810	986440.524224541228	21509.815630387
13	19240	1008651.541498373342	22211.017273832
13	19540	1024767.906598630441	16116.365100257
13	19950	1046439.256081357678	21671.349482727
13	20335	1066084.960048087023	19645.703966729
13	20716	1086092.518584919246	20007.558536832
13	21098	1106176.333668641832	20083.815083723
13	21502	1127112.621503532952	20936.287834891
13	21856	1145522.759871790276	18410.138368257
13	22277	1167090.159932035115	21567.400060245
13	22667	1187880.430605146196	20790.270673111
13	23112	1211797.702008392758	23917.271403247
13	23502	1232144.760635099471	20347.058626707
13	23859	1250887.78893405116	18743.028298952
13	24240	1271099.262423464198	20211.473489413
13	24642	1292392.405794700713	21293.143371237
13	25061	1313872.837156523126	21480.431361822
13	25481	1335565.105393063385	21692.26823654
13	25935	1360307.533009559957	24742.427616497
13	26312	1379652.622770751009	19345.089761191
13	26713	1400192.084230715523	20539.461459965
13	27048	1417503.011150169303	17310.926919454
13	27447	1438358.625954366407	20855.614804197
13	27924	1463373.23023856164	25014.604284195
13	28323	1484341.783756390336	20968.553517829
13	28736	1506227.307707886334	21885.523951496
13	29139	1525905.275087105235	19677.967379219
13	29541	1546811.367479385936	20906.092392281
13	29931	1567382.929497398568	20571.562018013
13	30325	1587836.035208311064	20453.105710912
13	30737	1609666.40028613633	21830.365077825
13	31157	1631430.182412732529	21763.782126596
13	31556	1651961.317059933345	20531.134647201
13	31939	1670920.293526025625	18958.976466092
13	32350	1692582.92942808489	21662.635902059
13	32692	1710526.815695688267	17943.886267603
13	33080	1730097.900580032871	19571.084884345
13	33553	1755118.6802083395	25020.779628307
13	33926	1774564.873624825998	19446.193416486
13	34308	1794427.348444936945	19862.474820111
14	418	22699.246112722906	22699.246112723
14	810	43049.333006492821	20350.08689377
14	1216	64550.596202141611	21501.263195649
14	1562	82576.445776387124	18025.849574246
14	1912	101164.525843458256	18588.080067071
14	2315	121891.743953456179	20727.218109998
14	2715	143297.809111769321	21406.065158313
14	3071	162807.129163993535	19509.320052224
14	3444	182219.53909483274	19412.409930839
14	3836	202782.282615196908	20562.743520364
14	4279	225921.328890603055	23139.046275406
14	4735	250855.297522502974	24933.9686319
14	5183	274241.265460266757	23385.967937764
14	5616	297232.866141479489	22991.600681213
14	6027	318850.515206577285	21617.649065098
14	6417	339225.081662996702	20374.566456419
14	6804	359817.912947153707	20592.831284157
14	7239	382514.551085885653	22696.638138732
14	7654	404049.035548931027	21534.484463045
14	8106	427186.164633021731	23137.129084091
14	8470	446318.768027122173	19132.6033941
14	8882	467592.108470387797	21273.340443266
14	9265	488019.029957824428	20426.921487437
14	9644	506691.460937261623	18672.430979437
14	10066	529154.687508358664	22463.226571097
14	10514	553146.778999012944	23992.091490654
14	10958	577411.27732093451	24264.498321922
14	11319	596666.904698358902	19255.627377424
14	11740	618877.04494502401	22210.140246665
14	12151	640477.436971035844	21600.392026012
14	12553	661317.078107851616	20839.641136816
14	13015	685010.953996796222	23693.875888945
14	13378	703208.485796582017	18197.531799786
14	13863	728393.559420481391	25185.073623899
14	14294	750710.021291510269	22316.461871029
14	14659	770407.244156347656	19697.222864837
14	15062	791825.70685877006	21418.462702422
14	15485	813323.549216031167	21497.842357261
14	15853	832882.794647128392	19559.245431097
14	16252	853977.159286500026	21094.364639372
14	16669	875853.775255847796	21876.615969348
14	17086	897182.748820865602	21328.973565018
14	17532	920609.206788358356	23426.457967493
14	17891	938748.295292258343	18139.0885039
14	18253	957177.079149638385	18428.78385738
14	18687	980268.35118688186	23091.272037243
14	19088	1000954.34204454077	20685.990857659
14	19456	1020087.778364075439	19133.436319535
14	19865	1042120.789221022372	22033.010856947
14	20299	1064088.275394751785	21967.486173729
14	20702	1085281.742052524448	21193.466657773
14	21125	1107450.540863676095	22168.798811152
14	21599	1132047.138192225349	24596.597328549
14	22027	1154239.360457752	22192.222265527
14	22449	1176615.709890495155	22376.349432743
14	22868	1198695.142215932822	22079.432325438
14	23248	1218800.640654866687	20105.498438934
14	23630	1238792.374575859972	19991.733920993
14	23939	1255173.753660055916	16381.379084196
14	24308	1274658.747023670111	19484.993363614
14	24723	1296433.694090461467	21774.947066791
14	25108	1316206.629410502613	19772.935320041
14	25559	1339607.316444511641	23400.687034009
14	25967	1361916.987477801861	22309.67103329
14	26406	1384118.696945021052	22201.709467219
14	26788	1404032.996636233417	19914.299691212
14	27193	1425166.230736300474	21133.234100067
14	27573	1445069.556575850711	19903.32583955
14	27964	1465554.484714754054	20484.928138903
14	28355	1486335.037663229872	20780.552948476
14	28781	1508240.208530333027	21905.170867103
14	29236	1530655.381065909887	22415.172535577
14	29629	1551259.323177742909	20603.942111833
14	29980	1569959.601307287951	18700.278129545
14	30402	1592035.459923790906	22075.858616503
14	30855	1615487.003101967416	23451.543178177
14	31306	1638792.563873576144	23305.560771609
14	31714	1659613.496011588869	20820.932138013
14	32059	1677201.79314818248	17588.297136594
14	32460	1698081.057962961644	20879.264814779
14	32900	1720930.68550550394	22849.627542542
14	33274	1740569.818978663685	19639.13347316
14	33731	1764352.59802232046	23782.779043657
14	34126	1784613.038467127052	20260.440444807
15	421	22753.599733463491	22753.599733463
15	767	40963.340872200209	18209.741138737
15	1199	63604.329708963638	22640.988836763
15	1600	84649.034336674963	21044.704627711
15	2011	106282.170060323559	21633.135723649
15	2348	123647.733188350695	17365.563128027
15	2670	141117.830747854906	17470.097559504
15	3102	164361.028682906191	23243.197935051
15	3530	186393.31355073956	22032.284867833
15	4023	212528.807607712237	26135.494056973
15	4403	232784.463186166265	20255.655578454
15	4757	251985.018006758783	19200.554820593
15	5170	273750.0724171987	21765.05441044
15	5565	294377.060613362139	20626.988196163
15	5952	315023.815955501071	20646.755342139
15	6376	337150.421643164032	22126.605687663
15	6724	355394.453728920804	18244.032085757
15	7085	374390.863258391642	18996.409529471
15	7565	399473.610948189186	25082.747689798
15	7960	419911.260006716503	20437.649058527
15	8332	439119.442285154976	19208.182278438
15	8759	461527.996980934436	22408.554695779
15	9114	480104.992423206601	18576.995442272
15	9540	501684.270061436144	21579.27763823
15	9924	521524.791270727326	19840.521209291
15	10391	546809.314257348928	25284.522986622
15	10816	569711.076674284455	22901.762416936
15	11171	588588.234233320734	18877.157559036
15	11583	610664.704348775603	22076.470115455
15	12015	632818.02055088342	22153.316202108
15	12389	652732.835398404908	19914.814847521
15	12829	675222.220758092641	22489.385359688
15	13236	695939.363536541402	20717.142778449
15	13583	713708.822969114463	17769.459432573
15	13992	734944.688223651667	21235.865254537
15	14390	755821.986276889279	20877.298053238
15	14807	778119.914247770853	22297.927970882
15	15196	798712.821404915364	20592.907157145
15	15632	821134.51819843619	22421.696793521
15	15987	839944.933970924533	18810.415772488
15	16391	861064.055055147104	21119.121084223
15	16812	883363.903093733892	22299.848038587
15	17216	904389.303892501699	21025.400798768
15	17622	925177.114766906085	20787.810874404
15	18035	946408.901327988203	21231.786561082
15	18365	963278.699855902304	16869.798527914
15	18813	986721.213965909628	23442.514110007
15	19101	1001605.402511078938	14884.188545169
15	19585	1027232.637320179569	25627.234809101
15	19979	1047971.589445020152	20738.952124841
15	20408	1069996.965615078892	22025.376170059
15	20773	1088935.555206262593	18938.589591184
15	21160	1109465.445906040347	20529.890699778
15	21610	1132703.085735091099	23237.639829051
15	22024	1153979.534228914509	21276.448493823
15	22423	1175118.166138068863	21138.631909154
15	22817	1196020.333159016537	20902.167020948
15	23265	1219537.062014336791	23516.72885532
15	23672	1241103.96397300074	21566.901958664
15	24126	1265363.72105008932	24259.757077089
15	24477	1283656.141250976457	18292.420200887
15	24865	1303516.110743279667	19859.969492303
15	25238	1323342.139980057354	19826.029236778
15	25636	1343889.944664202731	20547.804684145
15	26127	1369505.803274223686	25615.858610021
15	26442	1386004.739825846733	16498.936551623
15	26841	1406557.458986062664	20552.719160216
15	27244	1428140.835752477979	21583.376766415
15	27629	1447860.230828868335	19719.39507639
15	28039	1469438.500754535311	21578.269925667
15	28394	1488591.506056836921	19153.005302302
15	28793	1509014.722578227637	20423.216521391
15	29189	1528527.381559834004	19512.658981606
15	29605	1549949.234785046549	21421.853225213
15	30081	1575176.064319443081	25226.829534397
15	30536	1599023.256063577845	23847.191744135
15	30914	1618585.997085669204	19562.741022091
15	31312	1639271.484851371625	20685.487765702
15	31707	1659097.431578091475	19825.94672672
15	32100	1679202.107246965301	20104.675668874
15	32487	1699468.808126170321	20266.700879205
15	32881	1720069.741197629034	20600.933071459
15	33332	1743498.162460397132	23428.421262768
15	33752	1765192.004034295815	21693.841573899
15	34166	1786581.671492778835	21389.667458483
16	422	22765.780747868122	22765.780747868
16	817	43389.636591542517	20623.855843674
16	1141	60783.048513927505	17393.411922385
16	1560	82473.217758117254	21690.16924419
16	2040	107656.671206932528	25183.453448815
16	2498	131584.676314028924	23928.005107096
16	2921	154451.496733934636	22866.820419906
16	3280	173609.899949748087	19158.403215813
16	3655	193599.156058277026	19989.256108529
16	4016	212284.894074546199	18685.738016269
16	4415	233217.950944905197	20933.056870359
16	4798	253986.241360777089	20768.290415872
16	5199	275318.637545686249	21332.396184909
16	5557	294128.017695271443	18809.380149585
16	5987	316756.626078626175	22628.608383355
16	6408	338918.057369068299	22161.431290442
16	6721	355147.324862424321	16229.267493356
16	7154	378075.337928719858	22928.013066296
16	7566	399483.478445909027	21408.140517189
16	7973	420609.617178328378	21126.138732419
16	8403	442880.11327211284	22270.496093784
16	8798	463422.675717389258	20542.562445276
16	9229	486060.994566651111	22638.318849262
16	9628	506043.591207009792	19982.596640359
16	10074	529431.543082580957	23387.951875571
16	10498	552342.886757687723	22911.343675107
16	10890	573869.344357168363	21526.457599481
16	11274	594127.445109305035	20258.100752137
16	11644	613884.145993623014	19756.700884318
16	12035	634166.107553872343	20281.961560249
16	12471	656848.232366144723	22682.124812272
16	12791	673545.481313020059	16697.248946875
16	13207	694699.743680306781	21154.262367287
16	13606	715013.03688681226	20313.293206505
16	13963	733322.659192490465	18309.622305678
16	14367	754360.581421293393	21037.922228803
16	14754	775527.701667859294	21167.120246566
16	15119	794624.927509459744	19097.2258416
16	15571	817967.445354675952	23342.517845216
16	15974	839138.673017732878	21171.227663057
16	16341	858502.842335030518	19364.169317298
16	16771	881113.169184071095	22610.326849041
16	17118	898852.559944731268	17739.39076066
16	17480	918280.552829266611	19427.992884535
16	17866	937593.356173136357	19312.80334387
16	18269	957738.917031325484	20145.560858189
16	18701	981122.865597135473	23383.94856581
16	19096	1001324.768401449634	20201.902804314
16	19483	1021547.334923758262	20222.566522309
16	19888	1043252.599148545507	21705.264224787
16	20227	1060385.482268873696	17132.883120328
16	20620	1081133.748476277202	20748.266207404
16	21071	1104859.423577087097	23725.67510081
16	21420	1123015.517322812327	18156.093745725
16	21814	1143125.506355892966	20109.989033081
16	22230	1164665.92759662318	21540.42124073
16	22643	1186818.147604004585	22152.220007381
16	23031	1207401.678611640926	20583.531007636
16	23450	1229144.840430119186	21743.161818478
16	23826	1249105.251517030523	19960.411086911
16	24224	1270291.704664123358	21186.453147093
16	24576	1288863.182802102645	18571.478137979
16	24981	1309357.694962411305	20494.512160309
16	25368	1329781.572967185758	20423.878004774
16	25747	1349768.633208121293	19987.060240936
16	26103	1368572.428164188872	18803.794956068
16	26494	1388508.018104243216	19935.589940054
16	26892	1409505.476709106132	20997.458604863
16	27296	1430675.213607028253	21169.736897922
16	27690	1450994.118587114048	20318.904980086
16	28115	1473094.398689107172	22100.280101993
16	28550	1496541.124064591849	23446.725375485
16	28928	1515339.155360707219	18798.031296115
16	29359	1537050.683288485881	21711.527927779
16	29726	1556634.051820146991	19583.368531661
16	30156	1578986.476714024462	22352.424893877
16	30530	1598798.554382985601	19812.077668961
16	30930	1619367.626958992475	20569.072576007
16	31345	1640806.68311915375	21439.056160161
16	31781	1662608.987228013721	21802.30410886
16	32175	1683437.630379921903	20828.643151908
16	32620	1706787.541996571382	23349.911616649
16	32993	1725772.682875860631	18985.140879289
16	33482	1751667.407279717889	25894.724403857
16	33798	1767615.150422556479	15947.743142839
16	34162	1786364.837735658666	18749.687313102
17	430	23394.198919879274	23394.198919879
17	782	41806.673575658354	18412.474655779
17	1188	63151.169788674455	21344.496213016
17	1653	86924.462770228281	23773.292981554
17	2081	109891.889329184786	22967.426558957
17	2475	130483.180285664285	20591.29095648
17	2884	152387.309841695253	21904.129556031
17	3270	172935.884202830505	20548.574361135
17	3661	193746.855516918016	20810.971314088
17	4083	215593.168017338045	21846.31250042
17	4518	239090.028987731805	23496.860970394
17	4940	261488.735542050584	22398.706554319
17	5350	283396.190157858679	21907.454615808
17	5805	307506.082712207016	24109.892554348
17	6279	332084.54710396475	24578.464391758
17	6677	352911.134311230882	20826.587207266
17	7075	373936.346612521476	21025.212301291
17	7512	396463.878105045327	22527.531492524
17	7922	417910.948152188244	21447.070047143
17	8363	440992.15962470047	23081.211472512
17	8778	462521.766210906244	21529.606586206
17	9110	479820.93865703795	17299.172446132
17	9527	501134.583696140946	21313.645039103
17	9981	524686.525198747443	23551.941502606
17	10313	542554.854015936185	17868.328817189
17	10757	566538.394281640694	23983.540265705
17	11167	588331.145530915865	21792.751249275
17	11503	606003.740250715102	17672.594719799
17	11881	626078.98879610007	20075.248545385
17	12291	647462.210224941424	21383.221428841
17	12695	668834.589532110894	21372.379307169
17	13106	689398.791639832837	20564.202107722
17	13463	707222.756371717028	17823.964731884
17	13817	726405.3118441953	19182.555472478
17	14214	746240.267488290619	19834.955644095
17	14636	769166.506855515829	22926.239367225
17	15072	792367.547965957851	23201.041110442
17	15435	811138.100615353393	18770.552649396
17	15827	831559.839197318142	20421.738581965
17	16147	848237.515003304071	16677.675805986
17	16564	870242.550091235974	22005.035087932
17	17005	893569.758115452791	23327.208024217
17	17404	914348.425584496078	20778.667469043
17	17848	936638.482077978633	22290.056493483
17	18258	957380.263644503513	20741.781566525
17	18684	980190.072549507109	22809.808905004
17	19020	997289.994720602496	17099.922171095
17	19415	1017827.456451603303	20537.461731001
17	19845	1041262.424343964176	23434.967892361
17	20265	1062245.906543685217	20983.482199721
17	20676	1083966.052359086556	21720.145815401
17	21109	1106709.314221283518	22743.261862197
17	21549	1129579.166566603918	22869.85234532
17	21966	1151326.356743811732	21747.190177208
17	22377	1172697.312688571503	21370.95594476
17	22844	1197347.553908941441	24650.24122037
17	23233	1218131.34542154159	20783.7915126
17	23657	1240268.96450074866	22137.619079207
17	24043	1260951.103833387717	20682.139332639
17	24394	1279072.336798533909	18121.232965146
17	24784	1299388.510466669799	20316.173668136
17	25130	1317079.089219099957	17690.57875243
17	25458	1334552.670838893507	17473.581619794
17	25868	1356812.568852561642	22259.898013668
17	26302	1379225.485385628536	22412.916533067
17	26757	1402556.01494468295	23330.529559054
17	27084	1419200.324002420651	16644.309057738
17	27482	1440317.128536757206	21116.804534337
17	27898	1461992.915673880034	21675.787137123
17	28304	1483405.31887882402	21412.403204944
17	28741	1506434.902766137515	23029.583887313
17	29157	1526801.744969445413	20366.842203308
17	29525	1545982.063303585298	19180.31833414
17	29973	1569696.780805941806	23714.717502357
17	30331	1588223.512021824858	18526.731215883
17	30742	1609787.354498170458	21563.842476346
17	31140	1630512.965524220051	20725.61102605
17	31485	1648332.201831741402	17819.236307521
17	31792	1663113.60195279136	14781.40012105
17	32297	1689849.288339028283	26735.686386237
17	32751	1713322.110355482585	23472.822016454
17	33117	1732052.239611279368	18730.129255797
17	33478	1751366.648004390449	19314.408393111
17	33869	1771657.377258874626	20290.729254484
17	34269	1792377.773599117215	20720.396340243
18	433	23537.525508552792	23537.525508553
18	781	41772.877042181793	18235.351533629
18	1206	64112.173488247213	22339.296446065
18	1601	84661.125334328976	20548.951846082
18	1967	104208.322518970825	19547.197184642
18	2277	119940.084988600584	15731.76246963
18	2720	143904.045173549106	23963.960184949
18	3094	163840.469317976399	19936.424144427
18	3487	184187.502422835692	20347.033104859
18	3885	205306.521605467439	21119.019182632
18	4266	225276.195683050918	19969.674077583
18	4641	245975.491172983329	20699.295489932
18	5081	269000.540537992513	23025.049365009
18	5505	291515.830067452063	22515.28952946
18	5875	311193.19460692352	19677.364539471
18	6243	330247.1008471912	19053.906240268
18	6580	347807.841657777342	17560.740810586
18	6959	367991.381621221106	20183.539963444
18	7348	388288.704525679376	20297.322904458
18	7712	407131.5000598552	18842.795534176
18	8042	424039.366465760426	16907.866405905
18	8437	444649.976763292248	20610.610297532
18	8836	465233.660643221845	20583.68387993
18	9223	485684.992052963972	20451.331409742
18	9641	506463.914941647129	20778.922888683
18	10033	527326.839941320982	20862.924999674
18	10417	547896.143328747755	20569.303387427
18	10855	571790.749552077658	23894.60622333
18	11282	594566.625701962085	22775.876149884
18	11684	616028.708005207638	21462.082303246
18	12074	636522.906496538831	20494.198491331
18	12452	655887.992724194243	19365.086227655
18	12841	676172.275458695419	20284.282734501
18	13250	696688.843233045244	20516.56777435
18	13669	718244.186416268404	21555.343183223
18	14047	738300.966206705257	20056.779790437
18	14493	761356.465207412899	23055.499000708
18	14912	783947.239419445457	22590.774212033
18	15345	806267.145847203273	22319.906427758
18	15688	824360.927957226584	18093.782110023
18	16139	847824.357755715091	23463.429798489
18	16598	872157.689054030991	24333.331298316
18	16991	892616.250395891323	20458.56134186
18	17379	912855.885264580206	20239.634868689
18	17846	936520.710081677021	23664.824817097
18	18272	958016.126957140004	21495.416875463
18	18661	979044.463864993379	21028.336907853
18	19126	1002965.899233240711	23921.435368247
18	19491	1021904.721544822754	18938.822311582
18	19926	1045076.281262794589	23171.559717972
18	20431	1071309.171448345379	26232.890185551
18	20839	1092553.350646281701	21244.179197936
18	21247	1114205.499731353571	21652.149085072
18	21699	1137351.668608258568	23146.168876905
18	22084	1157108.087108354174	19756.418500096
18	22456	1177063.686620676983	19955.599512323
18	22771	1193473.2746919618	16409.588071285
18	23078	1210037.736233091077	16564.461541129
18	23488	1231291.344797588052	21253.608564497
18	23928	1254519.412145717169	23228.067348129
18	24356	1277123.326662462304	22603.914516745
18	24706	1295468.535732245174	18345.209069783
18	25110	1316291.80260607983	20823.266873835
18	25470	1335113.921686657808	18822.119080578
18	25848	1355644.255775143497	20530.334088486
18	26285	1378148.629957577321	22504.374182434
18	26659	1397491.82148068223	19343.191523105
18	27039	1416854.726518504436	19362.905037822
18	27422	1437123.016184661653	20268.289666157
18	27881	1461117.73272848234	23994.716543821
18	28268	1481360.911749070629	20243.179020588
18	28704	1504374.837222509206	23013.925473439
18	29029	1520349.214090034488	15974.376867525
18	29395	1538979.03399006476	18629.81990003
18	29760	1558401.995701831892	19422.961711767
18	30199	1581242.211715900466	22840.216014069
18	30569	1601064.157929620833	19821.94621372
18	30950	1620372.233979986179	19308.076050365
18	31385	1643228.947076713798	22856.713096728
18	31825	1664904.134518699854	21675.187441986
18	32284	1689218.024357920647	24313.889839221
18	32737	1712491.715831332978	23273.691473412
18	33144	1733558.326941914996	21066.611110582
18	33535	1754264.264435274669	20705.93749336
18	33958	1776068.396090646419	21804.131655372
18	34401	1799409.221501439024	23340.825410793
19	463	25252.371062175372	25252.371062175
19	853	45313.375770463608	20061.004708288
19	1270	67368.743480765262	22055.367710302
19	1608	85114.626281079839	17745.882800315
19	1981	104782.575330929835	19667.94904985
19	2355	124129.327860893688	19346.752529964
19	2723	144014.689882867977	19885.362021974
19	3169	167828.649398172281	23813.959515304
19	3602	190361.093779443771	22532.444381271
19	3973	210195.828188443566	19834.734409
19	4361	230341.992645990113	20146.164457547
19	4753	251686.740234028559	21344.747588038
19	5161	273377.238638349823	21690.498404321
19	5547	293466.755145695075	20089.516507345
19	5925	313662.116325809636	20195.361180115
19	6316	334107.367413584159	20445.251087775
19	6740	356327.155507402514	22219.788093818
19	7209	381122.277838178	24795.122330775
19	7642	403690.019029425479	22567.741191247
19	8073	425442.889943718934	21752.870914293
19	8529	449674.824936781103	24231.934993062
19	8913	469431.043793913002	19756.218857132
19	9270	488273.028727853697	18841.984933941
19	9592	504199.540453380933	15926.511725527
19	10027	527048.869395162938	22849.328941782
19	10396	547073.493768344663	20024.624373182
19	10805	569003.159794025154	21929.66602568
19	11165	588274.783796514416	19271.624002489
19	11559	609289.676230517248	21014.892434003
19	11924	628268.919853842852	18979.243623326
19	12336	649916.671913000792	21647.752059158
19	12701	669135.155621683265	19218.483708682
19	13105	689353.017561952627	20217.861940269
19	13455	706918.564025312706	17565.54646336
19	13899	730094.575127237521	23176.011101925
19	14273	749513.579704798806	19419.004577561
19	14691	772205.527719575961	22691.948014777
19	15063	791851.843015872926	19646.315296297
19	15506	814561.131904483828	22709.288888611
19	15912	835964.904914377314	21403.773009893
19	16383	860727.361290017201	24762.45637564
19	16799	882754.599190084322	22027.237900067
19	17228	905007.463271264048	22252.86408118
19	17589	923440.780530218097	18433.317258954
19	18016	945317.011012695793	21876.230482478
19	18425	966034.146365127591	20717.135352432
19	18869	989548.25358500245	23514.107219875
19	19294	1011445.2299061232	21896.976321121
19	19716	1034238.554299576276	22793.324393453
19	20055	1051857.213863753782	17618.659564178
19	20401	1069722.473556990804	17865.259693237
19	20798	1090144.386002328318	20421.912445338
19	21157	1109308.91525745399	19164.529255126
19	21550	1129680.907867499702	20371.992610046
19	21928	1149084.906112169922	19403.99824467
19	22307	1168740.249701310024	19655.34358914
19	22694	1189399.063236080187	20658.81353477
19	23073	1209626.026439596978	20226.963203517
19	23361	1224313.536072266369	14687.509632669
19	23851	1250520.992825506339	26207.45675324
19	24238	1270980.074376915669	20459.081551409
19	24645	1292600.869286921894	21620.794910006
19	25015	1311190.241526346742	18589.372239425
19	25449	1334172.797535429801	22982.556009083
19	25813	1353572.145949700008	19399.34841427
19	26187	1372667.609122116215	19095.463172416
19	26610	1394667.518727248632	21999.909605132
19	27004	1415117.089482257243	20449.570755009
19	27348	1433328.440277138824	18211.350794882
19	27819	1457660.455537377957	24332.015260239
19	28249	1480294.014372630148	22633.558835252
19	28620	1500510.31187816999	20216.29750554
19	29092	1523491.453115595608	22981.141237426
19	29556	1547453.904850292125	23962.451734697
19	29889	1565042.230507009768	17588.325656718
19	30243	1583630.152045749234	18587.921538739
19	30628	1604027.335609425901	20397.183563677
19	30975	1621855.144547880737	17827.808938455
19	31357	1641754.920456209332	19899.775908329
19	31791	1663060.12527435098	21305.204818142
19	32214	1685269.286355818735	22209.161081468
19	32557	1703223.550519673269	17954.264163855
19	32939	1722960.938970674877	19737.388451002
19	33290	1741294.867738732255	18333.928768057
19	33695	1762474.058574414933	21179.190835683
19	34065	1781734.415605198714	19260.357030784

