version 2
run case2-0-20181209-18:56:02-8524
attr configname case2
attr datetime 20181209-18:56:02
attr experiment case2
attr inifile simulations/omnetpp.ini
attr iterationvars "$0=\"uniform\""
attr iterationvarsf uniform-
attr measurement "$0=\"uniform\""
attr network PipelinedExamSession
attr processid 8524
attr repetition 0
attr replication #0
attr resultdir results
attr runnumber 0
attr seedset 0
param **.teachersNumber 3
param **.answerTimeDistribution "\"uniform\""
param **.minUniform 300
param **.maxUniform 1800

vector 0 PipelinedExamSession.teacher[2] examinationTime:vector ETV
attr source examFinished
vector 1 PipelinedExamSession studentsWaitingTime:vector ETV
attr source waitingTimeInterval
vector 2 PipelinedExamSession teachersIdleTime:vector ETV
attr source idleTimeInterval
0	11	4082.922730688006	4082.922730688
0	14	5018.404925870709	3328.894175333
0	19	6326.335962396116	4013.8487843564
0	30	8356.264075334185	4023.8254413474
0	35	9372.761742817239	2998.1451199623
0	36	10466.10412511509	3795.2173433499
0	41	11617.830906109886	2792.4997430295
0	46	12287.27465006523	2267.6053754753
0	57	14707.096530077981	3701.5382500598
0	64	16442.829261557201	3654.0142270736
0	69	18047.960138157943	2955.4242323851
0	74	19546.697983914057	4736.062559858
0	79	20627.414204645904	2397.3366293125
0	80	21104.82584028505	2934.7921595676
0	89	22485.774817666972	3858.5961727425
0	94	24202.778195589783	4477.1499364637
0	97	24661.639605229723	3278.5468388814
0	104	25672.040239325727	3654.2240844341
0	111	27077.417506207715	3771.3186347159
0	114	27580.244766105901	2100.6296804175
0	119	28366.456272290092	2920.9683539579
0	124	29584.599855984565	3601.4870251296
0	127	30464.333323063333	2084.0575189563
0	134	32118.231030134488	2966.3079080405
0	139	33337.826222903099	2896.7584109399
0	148	34684.273016033698	3798.3010423835
0	151	35963.983064331118	3235.9225733439
0	154	36520.347443525683	3111.2483452074
0	161	37357.575698825534	3465.6761069549
0	166	38569.321698881689	3922.0075319521
0	173	39724.61686281022	2219.7895337362
0	180	41507.17761057895	2666.2883950397
0	185	42786.363088991496	3352.4780698121
0	194	44579.312437400225	3944.472319074
0	199	45578.778596618216	2783.1335058203
0	206	46814.04375561979	3274.2470800644
0	213	48126.172239007432	2723.097963701
0	222	49593.690461595547	4458.5304420674
0	231	51125.180307962005	3317.58048255
0	236	52435.66975453869	2532.3911153013
0	243	54200.35895237234	4056.3979386119
0	250	55965.500588575383	3493.7059444841
0	259	57374.39596059267	3360.0281420862
0	270	59143.776056310167	2902.7080104919
0	277	60476.767835696233	2651.6422367189
0	286	62154.121044999925	3746.9461285276
0	291	63304.023217689251	3214.0939569566
0	296	64367.476659128448	4405.1002213731
0	299	64808.387418114586	1764.245019271
0	302	65972.307160869247	1993.1436888641
0	313	67666.251457622281	3904.9522574991
0	314	68163.948250631808	1271.8259031884
0	319	69434.709458495497	3991.2450884935
0	322	70168.818594957709	2637.7123975893
0	327	70743.605640158064	2803.3956265775
0	334	71872.837866400375	3108.7277494138
0	339	72727.550010010607	2204.1557825636
0	346	74044.274818967104	2944.802954304
0	353	75447.065849625513	2845.0855662581
0	354	76120.195559249267	2236.0933604417
0	361	77554.355596401736	3892.8712151013
0	368	79198.413180350333	3343.3054989204
0	373	80835.744826588787	3334.6684621414
0	378	81806.432894384496	3683.8870435953
0	387	83574.28928024602	4062.6054783119
0	394	85094.986009737485	4375.5505638896
0	401	86716.64081099444	3589.7335737012
0	406	88339.243850321518	3044.1928383429
0	411	89521.94147540723	2852.3385989014
0	416	90573.928050021651	3565.4317891225
0	417	91219.727584719668	3372.1147217788
0	424	92485.712879500362	3350.779311941
0	429	93695.302704814832	2798.13277137
0	436	94700.500987423594	2872.6923328126
0	439	95432.487493171367	2608.6427280447
0	444	96307.680832198831	1869.158848864
0	447	97250.833880086439	2843.7360819429
0	450	97754.044982953938	2153.6559642758
0	455	98501.468474697331	3803.8649249123
0	458	99332.538471347662	2897.1267278306
0	465	100460.262853978211	3624.899622146
0	474	102213.705502962703	3775.9465171024
0	485	103858.52540039924	4473.7527888268
0	490	105496.410437696623	3503.9855733979
0	493	106601.944213639954	3682.9655336682
0	502	107573.833474167632	2751.2146153953
0	505	108945.195421739491	3018.4827801771
0	514	110743.465926032523	3763.2252244279
0	515	111099.805002752701	2353.1897152774
0	518	111643.544399784887	3909.5420116559
0	525	112866.88375098166	3699.1511168657
0	530	114438.896091934302	3656.5754412208
0	533	115355.991178541453	3132.6788756764
0	538	115865.950053278366	2303.7560226861
0	541	116269.700538623156	2409.7563096788
0	546	117615.843697311366	2593.155427929
0	551	118545.956748817125	2799.7576955007
0	560	120145.530237816283	3007.6659079408
0	561	120791.643750225203	1775.1857351745
0	564	121109.214872494349	2981.8094772985
0	567	121949.181961105214	2451.7953021917
0	572	123344.167803693572	3501.6082449351
0	577	124153.273527743304	2760.1071332814
0	578	124534.780506812977	1757.0222435519
0	583	125343.258181493739	4241.5126441978
0	588	125671.04087267072	2746.0887449328
0	591	126666.217336943383	1930.2600651048
0	598	128278.076780028651	4888.4833018295
0	603	129490.456081414605	3927.7406126261
0	604	129838.214467302906	2860.722423275
0	611	131313.68083935232	2885.6737781083
0	614	131689.235927467245	2824.4456357555
0	621	133037.883043871272	3235.507726064
0	622	133738.776844879623	1898.9715301199
0	627	134959.72577368376	3319.7533180704
0	632	136556.147937406797	4563.2105859462
0	639	137951.33097684012	4874.6505887015
0	642	138848.662577918742	2902.1436642855
0	647	139463.428209023562	3074.0879158024
0	652	140091.552260820766	2278.9143583272
0	657	141500.878455676151	3499.8675366864
0	666	143256.233483017435	4028.0145429773
0	667	143684.176833601681	2420.4519736581
0	670	144071.220577298676	1752.1124962717
0	677	145102.977136289713	3956.0961080482
0	682	146867.583721736458	3616.4289270295
0	685	147436.989237950195	3408.0395503901
0	688	147774.007331114274	2821.4968982851
0	689	148174.881777330313	3528.4618192585
0	696	149590.633590845403	3287.1185027529
0	701	150906.255955318932	3631.8509852048
0	706	152551.26289073379	4025.4064191598
0	713	153555.508672026929	2777.1918320563
0	720	155215.135805262264	3217.0801985543
0	725	155858.964789798495	3001.5095111215
0	726	156638.990506972198	2497.2486441024
0	735	158295.627972856176	3929.0794505272
0	740	159842.200659331878	3552.7070263401
0	743	160142.28368487676	2294.2637195578
0	746	160910.074015636941	3694.2259339616
0	751	161848.251321678994	2822.6995515637
0	752	162426.705236476859	2797.0708932029
0	757	163746.52441882064	4010.9537451994
0	762	165077.756827999851	2937.1231399477
0	769	166560.865960107198	3677.6986586396
0	772	167957.149663916802	3876.7756898655
0	775	168727.688260073787	2396.132408618
0	778	169347.656222409582	2748.1766997138
0	781	170355.283586145392	3713.8722411823
0	782	170693.777656322359	2000.7143659517
0	789	172061.153388675316	3793.3241819032
0	794	172922.408356494284	2651.1348060798
0	795	173544.729461311376	3859.3035875587
0	802	174261.17252390833	3197.7079666452
0	807	175856.955925840897	3948.2324059121
0	814	177169.226943491971	2981.546687521
0	819	177731.590251834145	2964.3316683127
0	820	178625.679807504652	3591.8370294152
0	825	179620.405102218514	3261.4430339076
0	828	180195.324861584244	2581.788148242
0	833	180712.596505391424	2449.6629757108
0	836	181199.846096732666	2936.8227618746
0	843	182582.9670878593	3383.4275253816
0	850	184003.458444331785	3647.2023821902
0	851	184629.634185950284	1600.5756923463
0	854	185054.767838073907	2857.9137114342
0	859	186183.056545257581	4064.2210300779
0	860	186551.478499313829	2548.6383425072
0	869	188294.383074576048	4060.8511449303
0	880	189610.27803460603	3286.3287039567
0	881	189924.138139793662	2571.160832746
0	886	191229.012953164069	2827.2683705203
0	893	193005.507103982395	3962.7033255296
0	894	193577.953912387616	1672.584212129
0	899	193973.886811081334	2446.0699468385
0	904	195144.557506986908	3701.6851893626
0	909	196759.315370628625	3778.0505476752
0	912	197386.919642798617	2080.5719967233
0	917	198369.672868587091	2612.8093976062
0	924	200093.651101249285	3117.2128778184
0	929	201592.4549782416	4674.4110842468
0	934	202955.277201533332	4050.2647820162
0	935	203694.807627587594	2742.3250423511
0	942	205261.632744292744	4213.5711152572
0	951	206721.621766593323	4938.2982826559
0	952	207243.833056627789	2358.689061692
0	957	208714.473030343668	4824.4271650678
0	960	209732.028490165265	2647.4711488467
0	967	210778.115541511232	3646.2438179646
0	972	211630.992446118051	2919.3990755361
0	977	212573.328186501765	3583.0107540591
0	980	213158.100057207064	3935.735622514
0	987	214225.078530726039	1692.9059170419
0	990	214671.845259913259	3467.3635059502
0	995	216265.132531081342	3871.3817626471
0	998	217080.540780304016	3778.9392585168
0	1003	218563.849941291863	2668.5138102388
0	1008	220024.920945754292	4147.8587270016
0	1017	220924.169321148674	3405.3903433727
0	1020	221572.520533483493	3209.8829715746
0	1021	222071.251983032579	1934.9247199483
0	1026	222859.217446809652	2449.8925064458
0	1033	224247.608998906816	4005.0373603357
0	1042	225703.480122098717	3577.2638711846
0	1047	226379.414201737399	3322.2987092799
0	1052	227687.485906155798	2903.8518755464
0	1057	228635.707977740112	2994.1641577519
0	1060	229771.761157549936	3562.5510739395
0	1063	230658.042050851538	3986.0718347831
0	1072	232085.810004640399	2617.2412098153
0	1079	233273.712750384613	1949.8683499172
0	1086	234305.614607571653	2816.3097459823
0	1091	235392.503531416907	1990.3703615768
0	1096	236735.941700823634	2515.1192503748
0	1101	237686.100165266573	2372.3348447587
0	1104	238257.826609513752	3212.7661817707
0	1113	239740.644881199144	3729.8214760143
0	1114	240350.536789745122	3081.0066526523
0	1119	241818.579885014363	3397.71856796
0	1128	243140.618585189835	4058.1009586807
0	1137	244322.018040320867	3144.7349857539
0	1138	244822.215856332363	2082.4646521127
0	1143	245417.797272792117	2149.4783475995
0	1150	247105.542417685532	4310.0304837339
0	1153	248141.770342737467	2989.0347221866
0	1158	249146.017800760486	2096.4441767195
0	1161	249906.232951255546	3129.799402412
0	1168	251072.5473747589	3308.5802435875
0	1173	252340.902736480379	2730.5359252263
0	1182	253816.374688083337	4504.6817600727
0	1189	254920.640937262246	3028.2228785567
0	1190	255637.03507888134	2351.1316493154
0	1197	256745.870474260332	2578.6492012907
0	1202	257266.391311143557	2157.1418654406
0	1205	257847.087650466742	1783.2200362813
0	1212	259503.06357778612	3401.2686493574
0	1217	260488.430710556018	2993.9601890277
0	1218	260912.888327613505	2291.3442468038
0	1223	261900.794262369195	2571.7241818551
0	1230	263516.490714764254	3678.1506380998
0	1233	264455.949531728433	3484.3721564161
0	1238	265465.780535526605	2957.2503812145
0	1243	266257.361131953107	2703.0527536757
0	1244	266597.964612138489	2810.2851500502
0	1249	267852.056196914086	2964.1878648894
0	1258	269302.501456090281	3340.5555679696
0	1265	271041.251360485362	4410.0404644618
0	1270	272227.727605146388	3469.5906066103
0	1275	273364.444554504039	3858.5337771568
0	1282	275092.256266647051	4574.1027144017
0	1289	276623.406946286592	4182.8029389493
0	1294	278146.692683268371	4187.4801610596
0	1299	278588.379556895266	1418.3244624641
0	1300	279486.030945042181	4216.9835476438
0	1309	281209.977164422195	3500.8809077321
0	1314	281898.003262910094	2662.3157637427
0	1319	283311.36022943541	3323.7992085982
0	1330	285049.834311590563	3984.402031498
0	1331	285374.327068752642	2030.6869107066
0	1338	286472.10084171969	2210.1599573856
0	1343	287576.512647885862	2514.1890969593
0	1344	288025.935037108171	2470.3815487213
0	1351	289239.701404119875	3688.0118165631
0	1352	289677.74277920838	2452.2809315007
0	1355	290658.986377785947	3534.1665684013
0	1364	291449.037707853164	4102.5375558296
0	1373	293008.307164348695	3731.8624841049
0	1376	293951.500742929089	2616.3399725687
0	1379	294353.611857234533	1451.9404738443
0	1384	295031.523343781042	1963.5717477417
0	1391	296201.750923041287	3224.8508273391
0	1398	297066.090795141678	3712.6452919096
0	1407	298838.550315471399	2600.8144869469
0	1414	300624.067824636619	3250.3121514805
0	1419	301168.499460001509	2836.1255482072
0	1424	302679.033716535229	2561.6091825999
0	1433	304463.148378697257	3913.7243033387
0	1442	305965.902604046311	4058.1761380658
0	1449	307259.659459884312	2109.9633238977
0	1454	308558.448131103102	3816.6026122402
0	1459	310139.358303719234	3777.3054722697
0	1464	311271.39002066109	3613.765009772
0	1473	312805.229190853458	2255.2045802353
0	1476	313646.047529834356	3385.2822963148
0	1481	315189.032903546501	3065.5424726196
0	1486	316085.333150904659	2901.4464774868
0	1489	316734.273636876639	2396.4197668014
0	1494	317557.052682037499	2216.7961497093
0	1495	318242.902907263521	2768.904304225
0	1502	320021.140052843872	3175.7915382972
0	1507	321678.562566032666	4826.1467100587
0	1510	322160.15238168187	2217.4070399255
0	1513	322822.470913524772	2765.2030419325
0	1518	323464.866334176655	3365.303809382
0	1527	325191.295246733385	3552.2076569963
0	1530	326069.151381589505	3169.4357960718
0	1539	327744.241903116959	3280.3279765416
0	1540	328452.897249721023	2716.495689447
0	1545	328952.1197499242	2115.1507660747
0	1550	329813.564024423281	3318.5559157049
0	1555	331133.737332397173	4647.7759695612
0	1558	331691.516981623168	2828.5655280109
0	1563	332665.45445378873	2386.4140053978
0	1570	334294.39785210419	4611.385780829
0	1577	335701.983358617905	3198.4561555786
0	1580	336304.259927454438	3142.2384145902
0	1585	337427.038571261834	2148.500472866
0	1590	339137.353111524168	4611.6406479618
0	1593	339474.28304627541	2799.5590873528
0	1594	339997.526990971561	3104.5073459158
0	1601	341749.475347436998	4054.1662513046
0	1606	342727.207869803567	2784.9044772796
0	1613	343944.830496213433	2927.4784070207
0	1618	344916.104299784672	3606.4718948677
0	1621	345413.038295251351	2573.2116749044
0	1628	346619.215003307943	2541.11597382
0	1635	348262.293830327724	3822.2145373933
0	1640	349382.621175376733	2922.6956686238
0	1643	349905.338300694746	2508.5964899976
0	1646	350593.391776224633	2077.9524040176
0	1649	351216.684998106246	2972.7051581489
0	1654	352386.553598614444	3093.2582294103
0	1657	353094.032753258978	1901.8908132333
0	1662	354077.198972879012	4282.3350747116
0	1663	354415.445003332605	1720.7811217289
0	1666	355088.065193826368	4155.8554733405
0	1671	356146.864770376159	3783.4055500338
0	1674	356863.525280146895	2667.9519038647
0	1683	358505.820072325913	3701.1707395781
0	1688	359306.081273965573	3064.7077073576
0	1693	361056.76296036694	4746.3554244954
0	1694	361429.798396350851	2446.4672025992
0	1703	363082.022882415948	4083.7959102122
0	1706	363538.964710501058	2569.6088423487
0	1711	364361.678694631008	2025.6797140231
0	1714	365241.919421218371	4225.4105573287
0	1717	366337.052818201518	2602.2722329712
0	1724	368054.114036145656	4539.2568330048
0	1731	369369.785636267661	3291.7149669724
0	1734	370492.327641136981	4206.9412617479
0	1737	371201.352313603311	3829.9298829865
0	1742	371723.755274014584	2492.701745918
0	1743	372069.108164054378	2017.4523556838
0	1748	373321.693356684446	2906.7327370634
0	1751	373633.519510645456	2853.2357635908
0	1756	374492.538122437	4129.7112256056
0	1761	375629.635769804045	2439.4274984719
0	1762	376063.87758592613	1451.4967002673
0	1773	377117.941902671046	3119.073399785
0	1780	378777.199663943648	3569.6625271579
0	1791	380530.49581646923	3693.8837560359
0	1794	381265.159630961754	2304.7102457844
0	1799	382373.76995233357	3686.1651442945
0	1808	384097.061488847286	3294.5999956923
0	1811	385079.351302958131	3319.743875158
0	1818	386837.475060462058	3096.7981550843
0	1825	388509.661055915095	3511.2460917793
0	1830	389470.660195802376	2400.4532908788
0	1833	390535.370983486101	4090.7829920528
0	1838	391336.318293144032	3096.0825665155
0	1847	393015.61544879809	2797.2684504697
0	1850	394095.544015453234	2953.9011151996
0	1857	395436.478630523234	3877.8635564726
0	1860	396078.117880225218	3358.0769708846
0	1863	396993.570219632275	2548.6955601722
0	1868	398228.512229025401	3419.1704191966
0	1875	399848.672523326278	4411.4732449874
0	1880	400755.30992913995	3362.6442849403
0	1885	402362.988534453363	3797.6984631736
0	1890	403232.022646721491	3327.4432644015
0	1893	404344.093837053554	4226.4216628158
0	1900	406029.052932327652	2464.9377023801
0	1911	407781.482554273719	4230.2001098637
0	1916	408343.640565360004	2633.8888038648
0	1921	409013.442753371822	3175.353773497
0	1922	409763.48612664737	3488.2866221946
0	1929	411423.017476382705	4970.6378765171
0	1932	412619.922567391808	3881.4274075907
0	1937	413276.987848291214	2562.714430131
0	1938	413817.333556618582	1521.9169538235
0	1941	414336.138788354624	3180.6223189691
0	1948	415627.815061295446	2888.6802263791
0	1951	416469.77357659493	2999.6280015679
0	1956	417814.468293869909	3019.7913049255
0	1965	419432.207238650922	2808.0619483721
0	1970	420444.209215440829	3575.3782122396
0	1977	421854.035096406047	3328.7324465113
0	1982	423162.908556405497	4207.2478703689
0	1989	424247.418146417518	2594.8026765604
0	1990	424552.067461330485	3105.4372241255
0	1993	425395.351047604386	3465.4925974086
0	1998	426401.324470806908	2224.1500487784
0	1999	426709.108900744509	2217.1745248837
0	2006	428478.399289841805	4387.0147446636
0	2011	429270.381288277027	1543.0230910191
0	2016	429870.927772228648	2652.0623684395
0	2019	431081.80183817171	3934.385760664
0	2026	432098.271595663433	2686.42354568
0	2029	432755.891508492683	2390.6088524731
0	2034	433827.660622098525	2849.0514211357
0	2041	435519.988684309688	4338.7573114363
0	2046	436467.666073981714	2266.3345186505
0	2047	436967.825220432174	3592.9016243666
0	2054	437799.584309756797	3019.6498613572
0	2059	439078.047741693486	3797.6730694994
0	2062	440366.812455095392	2933.3083765581
0	2069	441262.697585905012	2540.2895677602
0	2070	442090.537083568093	3465.3022555634
0	2075	443062.751328991768	2682.9940522788
0	2078	444319.125373405446	3698.5693293158
0	2085	445838.706165645313	3560.6425697682
0	2090	447473.396647651721	3268.0174103938
0	2091	447943.625523475971	3041.0570084117
0	2096	449290.998246241402	4165.4802353354
0	2099	449714.084864733782	1965.9745365847
0	2112	451161.990747763817	4129.003459448
0	2117	452244.98515231539	4588.3642195025
0	2118	452814.10025409427	2651.2704078108
0	2127	454552.211640472566	4192.2695033485
0	2132	455727.317919395906	4386.2877361011
0	2137	457145.415027835448	3956.7438266007
0	2140	457524.177270988044	1481.0602993006
0	2143	458718.493948224974	2378.6976022879
0	2150	460356.195393204731	2918.6567542842
0	2151	460973.496248619673	2582.8032131307
0	2156	461495.209255814594	2162.5741105294
0	2157	462078.803240018939	2650.7240467239
0	2162	463363.94616973125	3465.8257986652
0	2163	463677.343066502405	2673.2993394602
0	2166	464123.230065009599	3405.5684263352
0	2171	465169.895421224689	4229.2345477967
0	2178	466043.555569765201	3904.8099268461
0	2185	467820.955527713565	4270.196388918
0	2190	468527.625618106728	2805.9470653301
0	2191	469001.376623078292	2583.5782314884
0	2196	470021.007433743259	3221.3082886068
0	2205	471790.950913494496	3850.164841488
0	2208	472150.426602107516	2540.8836568007
0	2213	473175.986293307549	2532.9895950621
0	2220	474081.675409013449	3430.619900208
0	2227	475388.750634365759	2144.8153771693
0	2234	476759.400939499072	3962.2690343298
0	2237	477658.142658532641	2537.2241245117
0	2244	478605.782846524424	3598.2473594835
0	2247	479010.846129641912	1698.1138163013
0	2252	480544.456232548735	3139.9892765097
0	2257	481852.147684246345	3167.1756927157
0	2262	482957.532186876095	1826.6503828112
0	2269	484507.505902159072	3257.5318866642
0	2274	485229.235353204466	3544.8996202089
0	2275	485574.160835333213	2883.8375692489
0	2280	486716.526757506698	3394.0086698625
0	2283	487181.203448795758	2222.8032892803
0	2290	488390.665649157062	4344.1538492683
0	2297	489642.845138115853	2819.8680161498
0	2298	490097.792370803699	2635.1585773285
0	2303	491420.970801659905	3327.0220363978
0	2304	491764.756162650929	2550.3623333992
0	2305	492066.567520913714	3306.6331344657
0	2314	494325.766281830199	4206.0690066777
0	2321	495820.245401677728	3024.7039932059
0	2326	496653.08320806367	3273.9398288308
0	2329	497730.307921534457	2269.3267445778
0	2334	499294.473214144871	3888.7290444458
0	2345	500544.595454027929	3215.7781135524
0	2348	501256.458029011317	3190.7382248668
0	2351	501569.492907193542	3431.2871953938
0	2356	501906.910001300328	2886.5920428419
0	2359	502306.134191877261	2961.1544754356
0	2362	502704.541495791689	1708.2523327321
0	2373	504288.955770526134	2735.139148403
0	2376	505749.139084643737	2514.9682175601
0	2381	506733.753422624484	2266.8152689934
0	2384	507532.039754977502	1813.0419219146
0	2393	508901.430035848223	3733.7455715518
0	2398	509725.590479071305	3540.7156608766
0	2401	510658.357248455339	2425.42347915
0	2406	511540.836651809567	3114.3541399855
0	2409	511884.265480516532	3443.0760736344
0	2416	513634.819564316477	3109.7242113668
0	2421	515252.378303767237	2660.3827721905
0	2424	515841.455261735301	3136.1458718078
0	2429	517571.150846430155	3527.6395381428
0	2436	518793.21275367407	3066.6018250398
0	2439	519657.79648397589	3137.9331471166
0	2448	521046.328388946186	2930.7366612833
0	2451	521647.102404199596	2273.4526560875
0	2456	522718.184115132372	3212.4735234305
0	2463	523804.753823624979	3710.5695862323
0	2466	524344.521753047648	2767.0311423484
0	2469	524714.731283811907	2015.8013103995
0	2478	526470.828444859999	3701.0076563805
0	2483	527639.34525114024	3027.7027570177
0	2486	528061.39964733744	1419.2016757792
0	2491	529684.244398400243	3880.2831199486
0	2496	530897.134353965576	2484.0498221805
0	2501	531958.587672142367	3968.7769433716
0	2506	533513.133716653156	3583.5930225207
0	2515	535209.361796686481	3909.0510629816
0	2522	536592.637825082112	3455.1841850393
0	2529	537531.55675178865	3081.1389774084
0	2538	539299.378073005993	4614.1661789501
0	2541	540287.13282756513	3438.1502575474
0	2546	541254.013755661492	3333.5846401518
0	2551	542411.7792072008	2584.0913447086
0	2556	544129.319370584619	3081.7942609778
0	2559	545035.779166314808	3388.7357224943
0	2566	546678.79683722282	3580.5358791025
0	2571	548007.012910977995	3032.7882263577
0	2576	548674.347130023001	2143.0151490262
0	2583	550133.899598009942	4243.3883496327
0	2590	551516.04476063518	4435.4977848474
0	2591	552107.078980654535	3641.8277295073
0	2598	553148.015729337988	3816.4956801105
0	2605	554714.368172013258	4324.8083926504
0	2610	555654.724711063375	3225.3448706819
0	2611	556073.179566697275	1557.1935686516
0	2618	557600.229524541704	3994.5106790168
0	2621	558134.80454329407	2648.4374897322
0	2622	558891.10258107545	1889.5929708146
0	2629	559561.670407047553	2982.1242739912
0	2636	560472.053308552189	3984.8347619176
0	2637	561420.043988269812	3735.4643251514
0	2642	562089.879395859374	1633.0263680778
0	2649	563792.832231405249	3267.5817777403
0	2654	565009.311993350333	3789.8273210507
0	2657	565897.007400915085	2833.5808925098
0	2660	566560.275287018216	3991.3760295371
0	2663	567235.872610774881	1433.2335568964
0	2674	568260.962921334489	4195.481931651
0	2677	569173.417283431685	1962.1933731018
0	2680	570039.527143514773	2163.0935775815
0	2687	571553.574599674961	3925.9314947762
0	2692	573285.07531872025	3797.3591274116
0	2697	574485.365132591746	2870.6757628592
0	2706	575940.315913385771	4019.2026237259
0	2709	576925.642882171146	3512.0731355622
0	2712	577353.243086370699	3019.4791139569
0	2715	578003.003719914764	1846.4499143651
0	2718	578425.061302981399	2035.6110210763
0	2723	579208.087312616468	3206.984776631
0	2730	580112.626317003802	2730.9012941318
0	2731	581202.987485798136	3072.5658966461
0	2742	582520.07660404785	3517.4480903428
0	2745	582916.72978203284	3460.8167583123
0	2750	583613.228922570184	2564.1506056767
0	2759	585311.81983561261	3869.1916680895
0	2764	586683.383439551167	3805.6986073265
0	2769	587222.102798125766	1736.3666085061
0	2776	588612.977666454449	3829.8205836676
0	2781	590194.667706009991	3506.86396854
0	2790	591712.575550004899	2848.1508289464
0	2793	592132.667190861016	1194.4034003885
0	2800	593208.373106271088	2922.7465715725
0	2801	593556.783039495408	1999.9340226408
0	2804	594483.946853410512	2558.6205315543
0	2807	595043.373876996398	1365.8228026237
0	2810	595504.189993953392	2403.4927285742
0	2815	597030.198665522099	4463.0079995608
0	2820	598213.416221109279	3376.8168783048
0	2825	599613.349922094554	4094.6747002657
0	2830	600546.078754635588	3074.3483775062
0	2835	601619.536276557543	3056.8122021854
0	2842	603378.903893125304	3059.9378515966
0	2845	603913.884124509119	3561.7024345323
0	2852	605240.072717168429	4332.3574112495
0	2857	606867.883630958446	3472.7369223023
0	2860	607893.160826526643	3485.3903631214
0	2865	608403.634861763628	2485.0056853378
0	2872	609635.844406695167	3760.509899212
0	2877	610882.151004485848	3673.8534864038
0	2880	611691.597577231067	2483.7506196694
0	2887	612891.916875494706	3265.2426700573
0	2888	613413.618877250763	3815.1137232548
0	2893	614094.057439500528	2819.0820461372
0	2900	615704.392683436225	3191.2627430633
0	2909	617352.834324049826	3892.0237180777
0	2914	618533.897291868988	2357.9709079117
0	2917	619308.71113885666	3518.3277654927
0	2922	620279.026576574023	3135.6860615546
0	2925	620978.638434992234	3403.5767614609
0	2928	621726.035066577668	4006.5826448612
0	2937	623493.293326115298	3318.3898621704
0	2940	624228.163498872953	2827.6741220383
0	2945	625394.72763114615	3402.8464001371
0	2948	626057.877188175978	2632.7468893491
0	2955	627384.706293046536	3289.8233781802
0	2960	629130.317778093802	4028.4014781704
0	2963	629642.577499919633	2422.2232566448
0	2968	631241.495703952449	4497.3541990388
0	2975	632431.112156342774	4498.2260123128
0	2980	633476.484278147168	1782.2442168603
0	2987	634708.238155581116	2604.3295141775
0	2994	636308.420960744902	3833.2640039502
0	2997	637210.562889603957	3418.1804245804
0	3002	638135.600520623907	3440.831625578
0	3007	639481.511956709496	3569.4496739656
0	3010	640098.694148124255	3868.005994102
0	3015	640487.768924748584	2055.6946862256
0	3016	641080.120422318637	2251.263004588
0	3021	642468.920173100256	3066.7743043508
0	3028	644689.489212515824	3259.042868251
0	3037	646076.980353682362	2616.8158655986
0	3038	646462.296247319378	1927.467284468
0	3045	647508.331497805253	2761.4850902231
0	3048	648388.002602825933	3974.2187207798
0	3055	649782.174774259389	3341.5041325847
0	3060	650541.748748975866	2199.2662978359
0	3063	651977.794959861845	4194.553008629
0	3068	652749.654900189549	3616.9951343676
0	3071	653889.316243794807	4628.1766656088
0	3076	655055.271525099005	3291.6048738174
0	3081	655630.940992967288	3025.4538983339
0	3088	658224.016680917765	4819.9223353062
0	3091	658724.6943766019	3047.8874251479
0	3096	660444.76427624474	2929.7819995321
0	3103	661149.589152820471	2930.1955486648
0	3104	661513.975442969303	2150.7394363638
0	3115	663775.729168625612	3943.8299195375
0	3120	665210.70974345791	3310.5777450604
0	3125	665957.99077812123	1573.6361053772
0	3134	667747.492747893621	3934.8532274365
0	3135	668258.068675641035	2409.4287019456
0	3146	669853.283010609513	4682.0176054956
0	3153	671249.88082973293	3689.3604721175
0	3156	672305.502550886078	3779.7041773796
0	3159	673194.148401310733	2339.3241007347
0	3164	674082.047693082197	2468.0660979124
0	3169	675604.846780607543	4411.3978085574
0	3174	676383.222761820137	3071.0550582502
0	3175	676926.759678265146	2142.9037947441
0	3182	678564.130409667335	4649.9506194144
0	3187	679525.296198553472	2409.2070334358
0	3192	680545.387527393244	3444.7753613116
0	3197	681976.222622813724	3059.9463145249
0	3208	683610.39448434028	2970.1247606194
0	3209	684077.63857177931	2663.4421630064
0	3214	685115.025714389115	3726.491092681
0	3219	685898.526023794032	3348.7081373809
0	3226	687646.160103287614	4552.9422324384
0	3229	688054.6856575879	2994.2587014288
0	3232	688774.856274062834	2319.5693627698
0	3239	690428.726586280457	3239.3620796269
0	3246	692183.843735558979	4110.2773241932
0	3251	693034.413098380968	2517.5267191138
0	3252	693630.302306357838	1476.7255439423
0	3257	694630.981411482274	4096.5349609964
0	3262	695366.353475488789	3117.5713204779
0	3267	696852.046910044804	4218.3111572871
0	3276	698534.625514433786	4877.0329305902
0	3281	699902.611379139192	3872.5688308245
0	3288	701586.059137643382	3004.457166628
0	3295	703196.8074047473	3763.528452348
0	3300	703817.560426960767	1994.7463356424
0	3303	704740.109353582443	3915.099133132
0	3306	705088.192785834031	1900.1939451322
0	3309	705479.685295536252	3284.8206235562
0	3316	707053.664037259365	3487.8698065644
0	3321	707699.281596648576	2701.1255337624
0	3328	708771.664905035938	3378.9969313424
0	3329	709414.634729828755	2147.5128932856
0	3334	710596.585414535436	3004.7371057793
0	3339	711785.905816359516	3493.6798980692
0	3344	712635.272300290014	3206.886183098
0	3347	713998.427881999012	4527.611813019
0	3352	714364.39103060409	2657.2482142132
0	3353	714932.344488613378	2226.3373113004
0	3360	716012.466619955446	2540.3759736568
0	3367	716649.087045877311	2232.4794934597
0	3370	717822.566646058183	2695.6828263123
0	3375	718283.775496389788	1954.5617735479
0	3378	719776.257170992975	3154.1849641129
0	3383	720124.79152204476	2515.3753332328
0	3388	721042.214799975117	3248.6199562903
0	3395	722839.253026549776	4526.0405264329
0	3400	723486.325697600913	2044.9535340071
0	3401	724140.077032777552	3369.3203279749
0	3408	725556.228873669241	4366.3704391569
0	3411	726199.514955352132	1640.2279917151
0	3412	726700.438291789104	2054.0695148287
0	3417	728167.852540710081	3536.7676014779
0	3424	729473.995027528216	4013.0638516042
0	3427	730122.56975064527	3337.8682746319
0	3434	731916.29269178964	5050.0476150541
0	3439	732595.342596899791	3437.4902099138
0	3446	734311.118875723405	3866.3170612184
0	3455	735690.202463697715	3487.5445771962
0	3464	737371.990779647677	3182.019216218
0	3471	738460.704217152743	2323.3323385706
0	3474	739235.800212971008	2924.6230680496
0	3481	740475.859928852952	3482.1150729898
0	3482	740812.268991186357	1694.8005963117
0	3487	741512.451231130472	2500.4852608312
0	3492	742790.638125920742	3630.4227525601
0	3497	743608.344785543232	2494.7573912563
0	3510	745362.153601110986	3636.065267818
0	3513	746282.791247754431	1885.9564845683
0	3518	747598.358047544098	3408.161682752
0	3525	748247.517055668941	2548.7626775634
0	3530	749734.358201874493	2974.4665138191
0	3535	750756.421045842654	3439.8321674438
0	3542	752113.843136513679	3838.1725837011
0	3545	752421.808211482203	2112.8575482639
0	3546	752738.840898801646	1814.0128316358
0	3551	753863.92265944749	2897.1074026544
0	3554	754288.859133934676	1183.3261981141
0	3557	754665.472352458238	1624.8315653997
0	3564	756413.747308426611	3863.5230645072
0	3565	756941.78815518979	2760.5698356405
0	3566	757287.100463896133	2600.7521000924
0	3579	759334.543709387146	3901.9621654646
0	3590	760978.410494676866	5003.188479552
0	3595	762418.484290363342	3155.997052649
0	3600	763677.678449149319	2393.1998105021
0	3603	764266.947598219925	2380.7471665554
0	3608	765185.026258556248	2681.8857334787
0	3609	765696.462478302495	2665.2454694035
0	3614	766361.897759372444	3403.692027647
0	3619	767953.58227200348	4314.7969392361
0	3626	769579.251435259432	3677.6721823029
0	3631	771266.511160391458	3335.9060791321
0	3638	772353.376761940383	2168.7128449325
0	3641	772833.792779361904	2409.8714389605
0	3648	774266.144444304593	3447.0539645758
0	3651	774716.522067342959	1884.1856688727
0	3658	776154.998900229186	4063.1880464265
0	3663	777905.581276095547	3539.353188104
0	3668	778382.310879766085	3001.1403102893
0	3669	779126.235635904671	2880.4333291249
0	3674	779825.661613396445	4229.628085834
0	3675	780524.520059558639	3054.0024981368
0	3682	782314.552845130749	3942.7978739608
0	3687	783775.118444929905	3675.830303086
0	3692	784853.603315376751	3687.4851183733
0	3697	786013.769224542268	4545.4188076314
0	3702	786971.153145516366	1806.4993344946
0	3711	788614.42255256705	3428.7368874997
0	3716	789159.948937129304	1898.662919621
0	3723	790533.997909119428	3665.8373743761
0	3732	792301.228520250955	3852.8432940133
0	3739	793825.774983828963	3321.0801506415
0	3744	795403.487859922537	3965.8503194572
0	3749	796071.40477490619	2635.9163593501
0	3756	797317.652490525583	3518.5205583461
0	3761	799099.486244050863	4144.6806840599
0	3766	799812.62413957164	2461.5159762092
0	3773	800987.413384183388	2907.8552918276
0	3776	801585.780391702507	2514.2577297287
0	3785	803319.96513060302	3036.6050136276
0	3790	804482.557695382354	3025.935989432
0	3797	806204.290524451142	2518.6338113621
0	3802	806998.767259460954	2722.391314432
0	3805	807402.087949798523	3598.297567782
0	3812	809116.801608656614	3983.9036725229
0	3817	810161.623800080351	4230.5698450422
0	3820	810615.293222805567	3169.3107520463
0	3827	811510.831978451543	2896.1841031909
0	3834	812570.346359163605	3169.8359872447
0	3839	813929.962221952238	2384.0020491974
0	3846	814775.184863386759	2844.3279840052
0	3853	816042.286372720347	2786.1589995213
0	3858	817740.660168975675	4826.6750615789
0	3861	818515.485476120458	2940.4082428431
0	3866	820055.693379440428	3723.4000933589
0	3869	820363.665939448484	1784.9078114144
0	3872	820754.168956750155	1567.7259000717
0	3881	822401.457345625468	3166.5592425037
0	3890	824040.51809886013	3635.4387565283
0	3895	824464.832352195017	2086.7694606772
0	3898	825418.129658466287	2753.7120477995
0	3903	826916.163531225257	2861.8330128724
0	3906	827586.32214360413	2995.3885222552
0	3913	828626.708048628726	3977.8279962251
0	3918	829852.11881536533	3395.5459325574
0	3925	831627.899555512787	3848.1861105887
0	3928	832512.222311901943	2622.5728137419
0	3931	833207.873842259952	3261.2358199898
0	3938	834924.812415498392	3849.2335180985
0	3945	836305.211201612921	3022.2631180426
0	3948	837602.20958143481	4111.5735921543
0	3951	838536.791238910602	2217.2790304525
0	3954	839135.277645243415	1959.4909951324
0	3957	839986.490629962729	3073.9965747111
0	3964	841346.798345167273	3224.9370676931
0	3969	843038.762591919014	3365.1041552424
0	3972	843823.810809035869	3436.3672709791
0	3977	845135.835025739008	3562.3380157398
0	3978	845850.340754608707	3118.4466506587
0	3987	847353.874385892497	3720.0508290902
0	3992	848494.550268072719	3979.5627002371
0	3999	849660.670072515579	4096.1425999179
0	4002	850175.962923956188	2884.8389978288
0	4007	850927.92630870835	3485.3360609617
0	4014	852641.203391435641	3816.8910974404
0	4019	854231.669406197119	4646.3178875623
0	4022	854979.58990533379	3098.0867033126
0	4027	855970.953993662345	3731.291974755
0	4034	857493.791552726264	4398.2471927069
0	4043	858995.403869147497	3105.1073550247
0	4050	860646.915736282329	3928.8170861313
0	4055	861100.500658946197	2740.6029827893
0	4058	862154.180278815414	3177.8466105228
0	4063	862708.909527864392	2487.2176653938
0	4068	864356.075974367644	3796.5069396654
0	4073	865507.615091186102	3584.1467509512
0	4080	866579.308778839271	3262.2572785243
0	4081	867664.355806005273	3429.7224274836
0	4084	868142.279079998929	2259.0864617145
0	4091	869849.66327862357	4424.2040364537
0	4096	870836.981666763399	2595.9182411665
0	4099	871279.027516348373	2733.3908692002
0	4110	872894.000126794066	4570.8658566931
0	4113	873611.493337084625	1549.3809189415
0	4118	874120.19327091993	3505.9606752824
0	4119	874427.175521291878	2442.1236148104
0	4126	875663.92173254871	3632.2708176216
0	4129	876546.175358165141	1863.1708130473
0	4140	877679.693917860363	3065.14200659
0	4143	878673.568024369974	2821.3222882245
0	4148	879943.061796273191	2941.5295857238
0	4151	880469.90713847344	2443.8382074935
0	4160	881978.100799187172	3757.530290843
0	4169	883748.71549615645	2908.1105668796
0	4172	884594.48266793051	3572.0485424157
0	4179	886076.356293191288	4556.2090505613
0	4182	886969.806790212255	2697.9304343462
0	4189	888703.005688078787	3055.8050634339
0	4192	889181.381101138044	1388.6459744303
0	4195	890107.689901208591	2719.3389913067
0	4200	891580.062489747156	3530.6602021214
0	4203	892278.958221059379	3230.2187797381
0	4206	892797.111632349056	2025.4564938135
0	4211	893388.19876417992	2159.4751054421
0	4212	894378.011569683527	2063.9630917925
0	4217	895428.043677262118	1830.2713454235
0	4224	897160.613691411069	4702.8124702396
0	4229	898753.000135347335	5123.5771027626
0	4230	899422.865713248117	2674.1008428857
0	4237	901054.416967160156	4049.5306366123
0	4242	901999.412131053483	3353.7367774174
0	4247	903256.172574567696	3703.4711399814
0	4254	904309.330950421369	3623.3901066938
0	4259	905731.365146697587	3596.4535462903
0	4262	906262.949550594291	3244.0426771995
0	4267	907224.220796395181	3008.2826920319
0	4272	908347.490293532698	3881.7162490217
0	4275	908988.225177442743	3302.2587746149
0	4280	909688.643889036118	4058.0700409831
0	4283	910142.119113192982	2689.6492627915
0	4284	910880.385165475397	3224.4439149275
0	4289	911369.101899303584	2824.540728447
0	4292	911878.720559226437	2578.3446643967
0	4293	912674.615009338683	2319.4043464959
0	4300	913534.273844515062	4015.3250152711
0	4305	914539.26439527431	2368.5938686598
0	4312	916259.475152799948	3507.4409714201
0	4319	917133.621478965594	3999.015302374
0	4326	918680.168154300279	3644.414850371
0	4327	919208.714873017832	3362.4742793385
0	4332	920744.072783994577	2974.0672952961
0	4333	921194.422938488512	2654.280326888
0	4338	921855.466907308525	3375.7159125293
0	4339	922596.866149222566	2853.0379925854
0	4348	924362.009083572863	3483.814690006
0	4353	925678.271624632268	3432.6473268215
0	4356	926743.301928369417	3639.6266364958
0	4363	927422.011727630249	3086.8036914384
0	4366	928753.395669045946	3134.1340554412
0	4369	929117.319564521401	3383.644074644
0	4374	930241.175463097258	3157.305476116
0	4377	931135.509576858109	3905.1000737585
0	4382	931686.663304036571	3686.4764212864
0	4385	932317.899724468677	2344.5311352611
0	4386	932848.27348992703	2285.8025798108
0	4391	934472.889885096899	3828.3174985321
0	4396	935961.967431334867	3503.6673617782
0	4405	937753.317060344941	4772.9227812728
0	4410	938167.092199204578	1985.9969642479
0	4413	938980.248010321609	3661.8511783658
0	4420	940515.455589420251	3258.7076647673
0	4427	942256.67437815582	3218.2311770506
0	4430	942623.531047068626	3504.4846368022
0	4439	944293.456439394594	4708.9373161783
0	4440	944837.132534897045	2403.479719162
0	4451	946610.79985848637	4001.1245688424
0	4456	947512.119211466142	2529.0575548774
0	4459	948600.994174531751	4347.167334496
0	4466	949648.794497014113	2556.7218080163
0	4471	950703.968417085797	3291.2599731702
0	4480	951802.448913012721	3829.5440098504
0	4483	952732.235386362389	2262.8713429207
0	4486	953807.917453162462	2540.2112661162
0	4493	955077.653341926724	3093.8058160013
0	4500	956364.952208893463	2050.2878651954
0	4503	956687.123602512382	1818.2155929739
0	4510	958191.224090382546	3860.0149778416
0	4515	959624.831053591423	3553.8709733868
0	4522	960791.216190671638	3119.0511674853
0	4525	961208.585334546022	2410.3821294615
0	4530	962065.515757561751	2781.0619910946
0	4533	962541.75314863687	3051.5741106123
0	4540	964061.588461557493	4376.419505314
0	4547	965808.354687877089	2713.071314944
0	4552	966894.34640512345	3096.5566452127
0	4555	968303.795156325303	2776.6085619573
0	4562	970039.101004810162	3929.0303926449
0	4567	971529.023509402849	3606.8339190446
0	4570	972683.58257249938	2719.1218514694
0	4577	974073.859112640001	3380.266023078
0	4584	975577.182785631247	3819.7531642858
0	4589	977176.620157063097	4582.4068963761
0	4592	977602.307196054697	2475.6970831426
0	4601	978676.492750528358	3004.4800932286
0	4602	979231.395230465658	3176.0743842227
0	4611	980584.155955142431	3707.4443524238
0	4614	981531.035937694922	4292.1056912513
0	4619	982627.828616579153	3081.0331115266
0	4624	983737.900555715986	4297.2459279466
0	4629	984850.634150393397	3423.3215570915
0	4634	985302.295388560832	2625.4244716605
0	4639	986385.880575142891	1797.4557677284
0	4646	987520.080343983226	2894.7857639054
0	4651	989257.181109278553	4781.5107434057
0	4656	990520.531659666539	2637.3971091583
0	4661	991746.777559770361	3203.0277953949
0	4664	992280.924971192234	3027.1602411289
0	4669	993558.125562896111	3523.238892993
0	4672	994328.51148059135	2130.3005552385
0	4677	995176.820020610557	3371.1679222528
0	4678	995510.317366244362	3254.28943648
0	4683	996541.039553331302	3374.4216914987
0	4688	998227.47767767878	3232.7730138553
0	4689	998705.001828842887	2660.6620659353
0	4694	999221.270404011102	2098.9331182558
0	4703	1000869.226909848021	3322.9900315404
0	4712	1002615.096394065859	4096.3710532291
0	4717	1003098.224795702936	3420.3899927437
0	4722	1004190.704788081439	4538.7742693769
0	4725	1004805.495494348088	2400.1810735557
0	4726	1005303.954016207808	2595.9253242239
0	4729	1005724.38126706993	3311.7352230242
0	4732	1006238.998902076946	2884.4728630269
0	4745	1007953.653481789024	3309.0265750419
0	4750	1008728.465172881351	2715.5667674728
0	4757	1010471.227061958143	4142.8274644772
0	4760	1011377.860536659227	2989.9660913274
0	4763	1011775.538259465338	2031.4071669476
0	4768	1013142.959999735558	3647.3651901819
0	4771	1014037.8751739162	2725.4507764941
0	4776	1014497.898843395615	3866.5437208023
0	4781	1015783.850360289307	3030.5572822457
0	4784	1016823.960801400335	1941.4385410259
0	4791	1018109.526317683139	2815.6785970554
0	4798	1019812.267088983299	2899.7143477667
0	4803	1021165.233475528749	2840.9796117106
0	4806	1022025.40681846449	2339.2668247456
0	4815	1023482.855011406446	3868.381121289
0	4818	1024210.18329751687	2104.9437387614
0	4823	1024666.165409563201	3576.953242044
0	4824	1025298.836986790503	2543.4030120727
0	4829	1026662.413199292588	4436.4825956058
0	4832	1027074.795360141526	2713.8423522469
0	4835	1028204.768224270175	4243.1050493382
0	4840	1029255.867288401449	3505.5121725658
0	4845	1029762.365638883884	2201.2903322233
0	4852	1031724.772911728459	3956.2562656123
0	4857	1033175.787392584706	3192.8684981307
0	4860	1034355.442995205621	2767.0625640079
0	4867	1035522.707537119376	2760.2222332265
0	4876	1037297.858507512237	2854.4040611945
0	4881	1038934.810601617309	3130.2695276448
0	4888	1040388.381100189972	3710.3876179084
0	4891	1041168.131923419523	2316.0214641597
0	4894	1041762.808406213398	3136.2298570806
0	4899	1043070.099952770497	3606.9778223522
0	4904	1044281.536121014606	3640.381964366
0	4909	1045545.741186873156	2927.1835529711
0	4914	1046081.663310178656	3225.5727145588
0	4917	1046863.872706960056	4070.7241907716
0	4924	1047875.149927474659	3894.7315530153
0	4929	1048385.809204168718	3810.9877439914
0	4930	1048951.212424831565	2580.1209821133
0	4939	1050496.926950756561	3391.6704950156
0	4946	1051482.521196082335	3760.9549702378
0	4947	1052477.096269629065	3017.8532349877
0	4954	1053777.849504235301	2787.84083887
0	4959	1054875.090925768118	3329.33101987
0	4966	1056641.465448774498	3491.6439156281
0	4973	1057954.052253579822	2923.0346303433
0	4978	1059643.042308068936	3602.0605229773
0	4985	1061293.593478482318	3584.3228145735
0	4988	1061639.233248587799	2545.7067694282
0	4991	1062229.668185231377	2758.3545349538
0	4994	1062698.043164285001	2044.6379378904
0	4997	1063061.589235696111	2495.5253901193
0	5000	1063703.200720693086	3815.6627889024
0	5003	1064673.390699131516	3240.7384164166
0	5008	1065497.257756185822	3432.8124607913
0	5019	1068229.377190070332	3984.1762436321
0	5022	1068579.01774803187	2257.9601619858
0	5027	1070073.193415044912	3253.1199001009
0	5034	1071843.893108703301	3750.3723288886
0	5035	1072212.159177521349	2873.9606914809
0	5042	1073453.734567808093	3150.0753871864
0	5049	1075003.149684076303	3779.374119686
0	5052	1075598.199453530939	3261.8539186427
0	5057	1076328.911806969078	2750.8994184667
0	5064	1077813.716069678882	3037.1695012785
0	5071	1079582.621422084155	3625.2920307219
0	5078	1081204.118514340478	3801.6187435482
0	5085	1082616.523177921879	4499.110014271
0	5092	1084278.895746963206	4466.8508671224
0	5095	1085416.320874588672	2757.0990026928
0	5100	1086358.888642815981	2673.4485059045
0	5103	1087265.853627724681	3549.2777875392
0	5106	1087696.286643133607	1257.6319209533
0	5111	1089392.602192517478	4613.153426419
0	5114	1089803.341609309535	3205.4562628968
0	5117	1090839.791180519495	2269.9819048634
0	5122	1092216.130432463359	4523.6333856359
0	5125	1093089.643129007999	3671.5985630639
0	5130	1094791.81492414802	4241.7869472178
0	5135	1095558.210500632521	2653.2110607717
0	5140	1096630.147826462161	3282.7963275835
0	5143	1097137.803094717782	2812.4159943312
0	5148	1097728.789292369146	3401.7500730464
0	5151	1098714.08679038297	3449.1655395599
0	5160	1100310.575329000237	4228.579530702
0	5165	1101133.573120879116	3322.0592854545
0	5166	1101655.557747837263	3236.4117433084
0	5175	1104298.633211734812	5030.523046595
0	5182	1105866.262222454059	3893.683476001
0	5187	1106516.82494615681	3269.1764348187
0	5188	1106906.461820192742	2146.8806215329
0	5193	1108271.351181459721	2846.5776906582
0	5204	1110955.075814598349	4256.5001436509
0	5213	1112288.048291159903	3291.7231546948
0	5216	1113310.604552971308	2037.7511762548
0	5223	1114322.931867395637	3578.8193617249
0	5228	1115085.918561928084	2633.9861013461
0	5231	1115922.894468857085	1980.1625819877
0	5236	1116875.607450655771	2946.1182900472
0	5241	1117949.000318069121	2868.1008746848
0	5244	1118725.448134658037	2623.1301421998
0	5249	1119518.87878056161	2687.2569230385
0	5256	1120639.323665038793	4099.0597211989
0	5259	1120998.127117334044	2414.6857404616
0	5264	1122425.074087805225	3855.401018844
0	5271	1123879.757615458331	3285.0608831272
0	5276	1125464.608815056383	2899.9880060786
0	5279	1126237.689617998078	3195.2257355209
0	5282	1126890.913328086137	3545.0337987626
0	5287	1128396.600853884704	3830.5535737658
0	5296	1129578.837362537272	3454.7474190826
0	5301	1130790.283507690877	2921.4625115041
0	5306	1132200.804305006862	4639.9641395314
0	5309	1132715.396447153874	2100.6841613911
0	5316	1133530.577159836069	2365.9133021487
0	5321	1134764.425442274772	3439.2682944657
0	5328	1135743.405737355464	2360.2748999605
0	5335	1137416.517202486397	4380.3541592555
0	5346	1139095.273709320576	4390.3550581075
0	5351	1140809.86709869478	2661.2720351899
0	5356	1141741.345109953658	3177.4077057838
0	5363	1143026.602631108948	4002.7588387951
0	5368	1144302.973631629833	3506.5294397995
0	5373	1145767.605206742996	3078.4725124016
0	5380	1146693.604919593895	1972.3202027148
0	5385	1147583.288541133629	2498.8784877118
0	5388	1148461.928051454129	2006.1159971869
0	5391	1148864.367191190945	3707.478286908
0	5396	1150349.824263411688	2924.7475120705
0	5405	1150922.257856349575	2320.7353462698
0	5408	1151563.404926983754	2153.5415247548
0	5413	1153133.930946956503	4738.2100642193
0	5418	1154378.122782893593	3757.6960478676
0	5423	1155016.836050944517	1544.3258039653
0	5428	1156800.468701636533	4305.4228212917
0	5433	1157913.494729390482	3698.2377426233
0	5440	1159380.552999582256	4035.2570371237
0	5447	1160994.091405277255	3054.1733772028
0	5448	1161294.642430544014	2512.9039000953
0	5453	1161660.215948126393	1565.7796679065
0	5456	1162653.362241061519	2502.9784718994
0	5465	1163910.90658216283	3124.0941440687
0	5466	1164337.338812858912	3198.7447333289
0	5471	1165840.062611200961	3856.8060472375
0	5474	1166192.546614911522	3350.4217671929
0	5479	1167300.963217578943	3930.2975338418
0	5482	1168278.673745831589	2895.9349490236
0	5489	1169778.418640932183	2467.102212226
0	5496	1171276.848385739255	3003.9880196331
0	5501	1172784.251741250161	3380.2149318857
0	5508	1173692.93500303768	3068.4787671547
0	5515	1174978.646660596248	3789.2054215539
0	5516	1175311.150059895706	2968.8969930634
0	5521	1176618.684845091891	4117.8571036784
0	5528	1178336.469790781964	3288.3852045983
0	5533	1179011.916583241079	3338.9182616724
0	5538	1180617.189847072702	4301.1113058077
0	5539	1181474.132007896084	2644.6806617081
0	5544	1182458.465759572688	3391.3214257685
0	5553	1184131.936273304861	2620.1050763251
0	5558	1185057.337196963023	3045.0960317161
0	5563	1186330.082538910325	3108.8461050298
0	5566	1186769.359353091683	3218.3711216552
0	5569	1187319.172460865345	3381.8292675773
0	5574	1188895.970159908872	4365.8489017747
0	5579	1190098.674025805783	3008.8228477165
0	5582	1190964.577417960506	2839.9746882264
0	5587	1192653.617176436935	4076.9647628535
0	5590	1193690.687281242688	3782.4629886076
0	5599	1194873.39605146565	3277.6900012745
0	5604	1195820.282821962726	2732.5916229514
0	5609	1196753.697052504983	3293.3147108182
0	5620	1198332.73056519695	4506.8323161453
0	5625	1199141.37245113973	2020.5906191608
0	5630	1200274.450674886	4504.1930835927
0	5637	1201725.64932920516	4704.3046389939
0	5644	1203500.039047817816	3928.5026708152
0	5647	1203926.350293425028	2273.8666110439
0	5648	1204401.045172638376	2070.3993174015
0	5651	1205254.693586728652	3322.4592576502
0	5654	1205799.466146226157	1917.1572826803
0	5655	1206470.888774399762	2563.3072269615
0	5660	1206935.243319114787	1492.5496205455
0	5663	1207395.807212381741	1431.4831864089
0	5668	1208437.954284483684	3381.8177581765
0	5675	1210088.967140251888	2592.6820575027
0	5682	1211663.501953845961	4213.3360632928
0	5685	1212338.206386286883	2266.0418131622
0	5690	1213411.356017156622	3592.572864471
0	5695	1214976.873271982304	4559.3236166518
0	5700	1215738.684415421567	3358.4843212506
0	5705	1217278.879323997653	3418.1486899965
0	5710	1218109.73549201165	2389.3814313691
0	5715	1219015.917818457937	3175.479227188
0	5718	1219548.178877681611	2336.4864989184
0	5721	1220466.901111020824	2610.7486539753
0	5724	1221149.797882558895	2372.1199966734
0	5731	1222776.730963122217	4040.0538836606
0	5738	1224273.020504554851	3861.3184242044
0	5747	1225963.551355409553	4173.9571204875
0	5748	1226277.589217014728	1360.8738430543
0	5753	1227691.936654178543	3086.9369479828
0	5766	1229380.707262409968	4821.8745797407
0	5771	1230403.037302242709	2841.1489069462
0	5776	1231298.363570706105	2543.6940691201
0	5785	1232238.254438107951	2704.626536672
0	5786	1233005.124641605771	2734.3478939496
0	5791	1233446.30829230894	2579.1761254426
0	5792	1233806.333902920714	2480.5998042924
0	5799	1235344.941183342716	3933.7375168456
0	5802	1235765.613953420079	1383.1895286916
0	5805	1236967.455587606064	3504.625630891
0	5816	1238519.335162569887	3081.7892960971
0	5821	1240155.481684184752	2532.0137243019
0	5824	1240593.878209940277	1931.6519056214
0	5833	1241886.979339365035	2845.4606861109
0	5840	1242592.69535683573	3015.8956963336
0	5843	1243469.105118513226	3428.5120652989
0	5852	1244824.215663643673	2596.2141076801
0	5859	1246088.079129927911	3747.1210368443
0	5862	1247110.040162061461	3717.6008840092
0	5869	1248098.669884982639	2645.3236347064
0	5870	1249158.037699037352	2893.7865505926
0	5875	1249868.060802854718	2246.176884952
0	5878	1250462.8060734832	2323.6180545995
0	5881	1250807.627780316518	1371.7685108772
0	5884	1251446.899352618614	2854.210914555
0	5891	1252679.614263097877	3320.152788749
0	5896	1253997.656226670491	2242.9010541877
0	5899	1255147.66023703863	3220.2927585226
0	5904	1256162.862280220847	3600.6979457801
0	5909	1257447.099931561511	2059.6336603398
0	5914	1258451.176456385415	3833.4712671116
0	5915	1259170.686714747112	3111.8463084335
0	5920	1259737.988150096621	1783.7907789275
0	5925	1260638.726119254838	3203.5439990927
0	5930	1261419.847992388654	3418.2984187268
0	5935	1262294.920094870153	3580.9490283485
0	5940	1263752.32430691843	3061.5507026436
0	5945	1265423.187903827178	3154.7339592129
0	5948	1265832.087995088781	2119.026749488
0	5951	1267282.091941125813	3703.9207323454
0	5956	1267981.64753043105	3299.9138355721
0	5963	1269148.768418748054	4642.4936243333
0	5964	1269595.651653246145	3046.6710077366
0	5965	1270112.011803500477	3061.8372942321
0	5970	1271758.530580345646	4336.1018571071
0	5975	1272428.952856315405	2505.3179826122
0	5980	1274599.222879903496	3506.5688665258
0	5987	1276775.851359008916	4302.3771841312
0	5994	1278465.62077926948	4930.468537705
0	6001	1280020.441543101438	4093.7864602078
0	6008	1281140.866636857495	2289.1533999704
0	6017	1282893.173224339366	5250.5807340844
0	6024	1284350.106656667881	3050.2570384182
0	6031	1285490.012574778043	2753.7236797856
0	6034	1286117.63264718476	2750.4713641014
0	6037	1287442.866808245995	3118.5757291736
0	6044	1289217.456442234212	3855.7383649517
0	6047	1289869.902266305977	3325.0209167367
0	6052	1291636.363718728641	4195.7561847288
0	6057	1292847.976483893687	4343.9993068809
0	6064	1294610.031017661201	4138.1884055212
0	6069	1295850.044189533325	3691.0311555024
0	6078	1297377.195764333116	3745.5241948832
0	6083	1298053.127908101412	3671.2648819434
0	6088	1299469.034644332821	3632.1913708001
0	6091	1300202.764701889935	3688.8900472317
0	6092	1300769.242311059605	2666.4105965523
0	6101	1301902.736254502196	2952.1262590773
0	6108	1303484.935164987218	3108.7671750924
0	6111	1304182.889423822161	3667.3160814447
0	6116	1305806.124443980042	3760.279191169
0	6125	1307372.614962095503	4368.6074011261
0	6126	1307764.862925047163	2708.0128171714
0	6131	1308710.134208737981	3045.5308485311
0	6134	1309594.578882702735	2886.1088907346
0	6139	1310652.788405749124	3040.8001125092
0	6148	1312408.35139020357	3742.1852843603
0	6151	1312941.40816584706	2809.6551913535
0	6154	1313807.149627315921	3249.6210038429
0	6161	1314875.175775168573	2159.0099758236
0	6162	1315391.772504989167	2410.1770455949
0	6165	1316010.796113219221	2972.5434506312
0	6170	1317025.717449607436	2935.578586394
0	6173	1317661.294096685123	2871.3113856269
0	6180	1318771.122354338985	3407.8335047001
0	6185	1320037.315364903879	2486.8531937012
0	6188	1320609.216855769154	2946.76886159
0	6191	1321511.299227015224	3745.4276227858
0	6198	1322734.695063158979	2862.6488535432
0	6199	1323234.417352848796	2771.8627584167
0	6206	1324667.276808153948	2481.9228580222
0	6211	1325501.660754717997	3253.7059659138
0	6222	1326483.545557363069	4173.0492929695
0	6227	1327464.793461095652	2745.4274337273
0	6232	1328951.924861082918	3050.2005803632
0	6235	1330030.313380155823	2671.663999767
0	6240	1331635.463063302561	3880.5331444368
0	6245	1332631.005095550902	2704.0600520326
0	6248	1333222.296409146041	3290.8255618298
0	6253	1334141.998564498611	3796.1993803969
0	6260	1335037.900633039065	3169.9699475197
0	6267	1336735.985723720044	5090.6379255233
0	6272	1338286.904125940167	3110.8676664066
0	6277	1339077.31749834504	1730.7558023371
0	6280	1339548.636189918146	2692.7074295003
0	6285	1341070.2323727078	2773.502676026
0	6286	1341547.262843395696	2854.2095367797
0	6289	1341896.369679132589	3674.7745974921
0	6302	1343504.185937298574	4231.8596893223
0	6311	1345029.274466936589	4203.2504513394
0	6314	1346660.673917597272	3136.4626560593
0	6317	1347195.938440784924	2105.0034856657
0	6324	1348227.696230169498	2440.0662333705
0	6329	1349745.550722302981	2190.3096133377
0	6332	1350085.032716766112	3270.9440835519
0	6337	1351463.351085176804	3299.1120237624
0	6342	1353038.958834065237	3446.877225861
0	6349	1354107.482559979075	2903.0548267532
0	6354	1355231.610433501305	2983.5342962528
0	6355	1355990.64464264095	3836.9713948108
0	6366	1357675.016086874643	3615.9868060844
0	6371	1359026.901350054072	2838.5141800158
0	6376	1359806.290239561463	1597.4050754216
0	6379	1360536.019760370368	3785.8766884077
0	6382	1361263.782146293783	3164.0861741966
0	6385	1362097.673476534077	3141.9508286985
0	6388	1362869.772633235083	3422.6263934746
0	6393	1364037.687600357571	4141.4058210561
0	6396	1364689.956051833109	3886.6796890274
0	6399	1365192.204057611638	3734.932787111
0	6410	1366972.243660572102	3114.7260803031
0	6411	1367328.46017675486	1731.4610430971
0	6416	1367642.33216398873	2834.4668010017
0	6417	1368620.079193683459	2198.0781138176
0	6426	1370197.040608059732	3161.7535321042
0	6429	1371326.517108106172	3866.9385859743
0	6432	1372540.553285088507	2939.7872171598
0	6445	1374234.673198429054	3718.2631807867
0	6450	1375862.957157148166	3452.8510585427
0	6455	1376446.130025107531	1744.7113477159
0	6456	1376768.594416184468	1955.8854066767
0	6463	1377999.394777743263	3992.3589246813
0	6464	1378581.516297999887	1598.8234837772
0	6465	1378972.085516271299	2028.5660824506
0	6474	1380615.024109161577	4053.3268690109
0	6475	1381155.413985229215	3498.6152125988
0	6478	1382010.706845950453	2516.1092565162
0	6487	1383339.181802119246	4295.971777034
0	6492	1383648.486930015615	2615.0234266883
0	6501	1385227.437907504036	3312.8912526649
0	6504	1386493.885841430283	2635.3307472076
0	6511	1387865.335613186589	2721.8104527332
0	6516	1389038.169028703241	3806.9571696455
0	6519	1389552.453106572038	3094.8732967721
0	6522	1390653.037788835472	4068.6771969544
0	6525	1391101.246523531272	2535.2267445764
0	6528	1392215.42049134162	4051.6925093019
0	6535	1393406.988478498652	3210.4315283708
0	6540	1394253.415331198021	2235.2106066886
0	6545	1395724.743108172088	2779.5284946682
0	6554	1397170.634421729601	3647.8029183112
0	6555	1397697.863425640508	3293.9868779853
0	6562	1399185.169637203335	3439.8893166566
0	6567	1400521.475801663592	2798.5806283308
0	6576	1402233.634735364586	4248.0421722634
0	6577	1403121.754660830021	3228.5278268158
0	6582	1403616.183232795566	3144.9126077117
0	6593	1405371.379538322918	4085.3003486758
0	6594	1405824.65585223411	2472.3854780663
0	6599	1407171.830410743251	3903.2239062712
0	6602	1407789.107382972844	2432.5897933217
0	6607	1409335.52959926904	3976.09242748
0	6612	1410082.484992803194	2654.7392566921
0	6617	1411010.030127782494	2723.9979513455
0	6618	1411823.369627958283	3345.0057431823
0	6625	1413086.788624618322	3241.1460751668
0	6630	1414237.649457226627	3645.3605927294
0	6639	1415888.264678651587	4819.07324153
0	6640	1416456.340348301575	1995.9578733891
0	6643	1416797.820081375659	2892.7527067484
0	6648	1418088.32798267261	2798.9685550332
0	6657	1419819.929300272026	3836.8106945185
0	6664	1420840.091015445189	4014.7515093908
0	6669	1421892.750705778719	3684.4676520908
0	6672	1422728.106586751648	3547.205880261
0	6681	1424428.866572538511	2793.7596698524
0	6686	1425636.431101290629	3225.497086742
0	6691	1426266.341056209178	1548.9936526632
0	6692	1426820.858237519981	2637.1660399949
0	6695	1427366.367857926646	2083.0735666445
0	6700	1428056.746668974059	2921.6667274944
0	6705	1428996.975940349633	3895.2374043642
0	6712	1429885.442608385468	3571.6703935526
0	6719	1430915.858872770453	2654.3538889149
0	6726	1432659.474285110021	3276.2223722879
0	6729	1433247.734158742363	1678.2748800237
0	6734	1434689.729568595188	2693.7479016837
0	6735	1435042.559282505075	2275.6625452079
0	6738	1435568.631997984024	1789.4650682341
0	6743	1436112.009710655669	2427.0008565858
0	6750	1437278.253994044038	2861.2840960035
0	6753	1438103.556928737211	3312.4565011589
0	6758	1438805.539961555163	3671.9911787426
0	6763	1440050.392764341208	2828.1512863236
0	6768	1440919.892427418503	3113.2337987423
0	6773	1442220.117843453895	3687.1013951954
0	6774	1442522.509695310268	1837.6993164187
0	6781	1443787.975719315122	3002.261113585
0	6784	1444803.624938079278	2921.5414711274
0	6789	1446326.049340912263	4211.7049065186
0	6798	1447431.547677470493	3196.6072589625
0	6801	1448498.425107495981	3775.0337484526
0	6808	1449615.414847852784	3142.8561776178
0	6813	1451011.070083896751	4045.0047382386
0	6816	1451669.178342120843	3880.2644143347
0	6823	1453384.919719048897	2552.2270267596
0	6828	1454116.282788966904	2600.3957567504
0	6831	1454776.324286358553	2192.392722331
0	6838	1456158.908592607017	4075.895409775
0	6843	1457204.025219683658	3290.0778513635
0	6844	1457883.306025969919	3516.529318504
0	6851	1459664.348099311006	3777.5138208875
0	6860	1461120.047691394699	2479.5339545002
0	6865	1462218.551788316232	3872.4980187602
0	6868	1463048.066177079578	2690.9977046074
0	6873	1463587.310995767017	2601.5170018421
0	6878	1464739.554366376375	3480.8979308931
0	6879	1465072.107077809175	3493.0516122608
0	6884	1466633.352440502619	2537.978482875
0	6889	1467522.205981216518	2781.218810915
0	6894	1468038.170779799236	2855.3619174985
0	6899	1469542.886895756362	3670.0057629263
0	6904	1470455.902986461422	3082.8856630018
0	6911	1471899.348358693658	3533.8748600101
0	6912	1472446.556735923639	2942.475391645
0	6923	1473993.111320282458	2639.7213169606
0	6926	1475023.020459618545	3477.6132167084
0	6929	1475327.157468767962	2183.43011986
0	6934	1476856.692178594074	3385.3722320404
0	6937	1477371.572028170465	1360.3251032531
0	6944	1478974.664893909483	2928.9502161322
0	6947	1479797.726992447986	3116.6246627457
0	6952	1480896.80785615941	3470.5765049206
0	6961	1482649.125511245927	4181.7234343383
0	6964	1483827.292700903615	3089.4739408744
0	6971	1485050.590548757589	3796.4181931224
0	6976	1485682.569225831083	3392.979075294
0	6985	1487405.014358461029	3927.9566013487
0	6990	1488066.268885927401	2400.4699960118
0	6991	1488753.3228135669	2007.1226997301
0	7000	1490337.599695986263	3958.265523403
0	7001	1490983.200166770383	2207.7024626546
0	7006	1492358.392679365478	3195.7914361032
0	7013	1493574.127288721628	3041.8284592219
0	7020	1495336.212146468587	4052.2055107635
0	7025	1496746.13150800591	3184.4705809839
0	7028	1497664.403244084806	2692.7417680621
0	7031	1498178.871418582403	2768.258162518
0	7038	1499010.703138494992	3323.6331871944
0	7045	1500073.86198886683	4129.3724193005
0	7050	1501346.110791061202	4203.6876287078
0	7057	1502449.935261556076	2790.1734862011
0	7062	1503980.62850232249	3807.2179100476
0	7065	1504402.125781704801	2421.8521995703
0	7070	1505757.601300394292	2902.3015727056
0	7077	1506646.739717200528	2096.5642642463
0	7084	1507599.17254820479	3359.8551497329
0	7087	1508512.704805587548	2277.6748582022
0	7090	1509311.078172479886	3501.2371910037
0	7097	1511095.365794864613	3429.6447370201
0	7100	1511944.362838030923	1770.9233641857
0	7105	1512397.39213376319	2761.5998496534
0	7106	1513457.546750782188	3765.8060344169
0	7111	1514819.659147714395	3485.1956197293
0	7122	1516593.328888085801	3641.1332755582
0	7127	1517496.09566652229	2777.8778056148
0	7130	1518060.251429490875	4030.7114182273
0	7135	1518839.962425758261	2645.7424340537
0	7138	1520133.73413363019	4359.4754545251
0	7143	1520899.705891404431	2433.1642830279
0	7150	1521895.547910919543	4267.4511071295
0	7155	1523003.1005712693	2842.7710206946
0	7160	1524314.216510974933	2479.6115883859
0	7169	1525885.825517191683	3418.5244046152
0	7172	1526748.892505793032	2626.8360700691
0	7175	1527666.929136472885	3198.7645174144
0	7182	1529415.517342672814	4415.9240013454
0	7187	1529938.588549965192	2664.6430662135
0	7190	1531124.008426512722	3841.7518522823
0	7195	1531891.182526038159	2031.9925492862
0	7204	1533302.718373225201	3018.9754363149
0	7209	1534696.139915892985	3798.2770037837
0	7214	1535265.522632282358	1576.2469218811
0	7219	1536810.81750355674	2974.2686286103
0	7224	1538111.944147409071	3678.9441270288
0	7227	1539043.854240886998	3028.0020272825
0	7234	1540733.253060537521	4565.32041959
0	7239	1541153.953839093577	3499.0966331447
0	7240	1541648.250939860139	2101.2345842086
0	7245	1542482.26183061501	2031.5622869879
0	7252	1544083.412276557777	4113.3391181706
0	7257	1545746.292307670359	4092.043941468
0	7262	1546479.652466951069	3326.4691210119
0	7265	1547479.945865180474	2885.1787963416
0	7266	1548097.402126668152	3109.0041430201
0	7273	1549770.881380629857	4351.5592879616
0	7282	1550925.689610815738	2649.2833418073
0	7285	1551807.69877228899	3584.5945331734
0	7288	1552282.757405494471	2585.0592013216
0	7293	1552869.895719015171	2571.7986110598
0	7296	1553980.229921615814	3298.0694302591
0	7301	1555228.08613528045	4581.8614373915
0	7304	1556012.359496788253	2986.9471599581
0	7307	1556887.153636501302	3101.0769626359
0	7314	1558435.355512099472	3449.4948051637
0	7321	1559965.989189664965	3957.4846796226
0	7326	1561248.384755733555	4133.1202640198
0	7327	1561590.769779402895	2409.5320878318
0	7336	1563074.698016583121	4216.8293181807
0	7341	1564510.100999521225	4285.8081368962
0	7350	1565911.642543017066	3252.7356600389
0	7351	1566790.384493116423	3325.0764014432
0	7356	1567836.927526630595	2911.5807767725
0	7363	1569104.635334294423	4108.9499998838
0	7366	1570268.086442747287	2731.5149804112
0	7373	1571489.637707686186	2306.5187782981
0	7380	1573217.961430829153	4602.8552273987
0	7389	1574719.871560111777	3491.221275623
0	7392	1575186.077519157105	2316.2074795458
0	7397	1575904.9261439593	2949.4589663576
0	7404	1577392.106736987033	4904.0284926072
0	7409	1578351.724698487804	2600.7225165144
0	7416	1580026.452791411565	3732.0202828618
0	7421	1580849.313246854716	2460.4442713084
0	7422	1581211.33280745721	2968.9918053104
0	7427	1581741.388324624994	2251.6359140631
0	7432	1583468.504546606117	3845.5877017463
0	7437	1585267.316544195772	3545.6316882977
0	7442	1586022.639822517657	3385.3535987204
0	7447	1586545.200176909701	2400.0185023528
0	7448	1587582.876222767071	2811.339604645
0	7455	1588809.719989705027	3325.7241793675
0	7464	1590553.464245167689	2556.2972090906
0	7469	1591548.030815972143	3414.5966989221
0	7472	1592809.539368399547	2603.0292082345
0	7479	1593779.264747724065	2332.7929343563
0	7488	1595522.444401681551	4209.1758537339
0	7493	1596987.568901502655	4804.7946268693
0	7496	1597865.644079237373	1942.5981612643
0	7501	1598862.079091160686	2381.95124825
0	7508	1600654.431954003067	4178.7574371323
0	7513	1601908.716271212452	4253.3438416198
0	7518	1603021.331255673558	4358.5506567964
0	7529	1604691.419498948508	4509.9246684462
0	7534	1606035.905017890164	3829.3311713263
0	7539	1607481.805063295306	3153.9810652379
0	7544	1608596.014759317168	2245.6934841815
0	7549	1609949.640769511589	2982.4882071465
0	7552	1610449.254764663183	2727.6326536434
0	7559	1611909.436773299367	2943.0410021218
0	7568	1613654.077603225724	4640.0614111684
0	7569	1614218.705751397775	2832.614579564
0	7574	1615018.966834643052	3477.4922808632
0	7579	1616185.526521015109	4276.7697403673
0	7580	1616749.948987760709	2039.3915695371
0	7583	1617391.508585633838	1898.8938396564
0	7590	1618866.817376157397	4605.4343222408
0	7595	1620270.097937900701	3491.0080221947
0	7600	1621801.199329504871	4674.7464117128
0	7605	1623168.556728540116	4024.6868104208
0	7612	1624499.584420560987	3119.0256100148
0	7617	1625577.134036505723	2822.507267911
0	7622	1626961.467866320291	3865.6580896117
0	7629	1628139.131526765542	2843.2661641622
0	7630	1628517.742078774737	3782.1949276607
0	7635	1629427.435887255834	3573.9588706987
0	7638	1630529.083929886238	3056.6485525109
0	7639	1630852.598097757564	1888.0735762417
0	7646	1632172.723775566683	4145.4422288574
0	7649	1632858.956239326053	4139.1682845773
0	7654	1633673.113807663449	2570.9526280174
0	7657	1634607.028918736742	4100.7002566243
0	7660	1635396.981767029629	2717.607336212
0	7669	1636929.489669925661	3495.928343595
0	7672	1637523.173220246227	2039.1382520087
0	7675	1638206.932134088257	2762.098565558
0	7682	1639643.32608708659	4889.4808691461
0	7687	1640991.591231781187	2766.0708381794
0	7696	1642637.74122968329	3848.3714016387
0	7703	1644217.049974040258	4673.0371743673
0	7708	1645955.548996199052	3953.3819269622
0	7713	1647102.444666833747	2755.9503882425
0	7716	1647459.312159684617	3035.7932563405
0	7719	1648344.657793943901	2336.5812210599
0	7726	1649744.347702385989	3502.2858861834
0	7727	1650214.658249030021	2715.6505491352
0	7732	1651232.817204482985	3177.7599381516
0	7737	1652244.977774564308	4227.7311354177
0	7740	1652714.160166634378	2940.1803898858
0	7743	1653990.176291694065	3304.3462736299
0	7748	1655558.236598479693	3370.2723033261
0	7753	1656643.135179695805	3914.0378479846
0	7758	1657372.832137509381	3106.5660984954
0	7763	1658593.603896629197	2702.727135946
0	7766	1659306.113503198271	3704.6052970458
0	7771	1660356.919695949314	3938.2495662197
0	7784	1662094.008778268604	3296.5527975233
0	7787	1663251.25494017279	3146.4628106682
0	7794	1664650.477621425076	3255.5156062357
0	7797	1665190.071130776911	3207.8954522498
0	7804	1666829.030838771856	3175.9384402307
0	7807	1667377.255679969809	1853.7698115455
0	7810	1668615.382088930479	2042.6915985066
0	7815	1669849.565574503637	3352.5628915289
0	7820	1670831.707725674047	3215.3258201201
0	7823	1671344.687438313982	3729.1962499497
0	7828	1672033.748160163073	1964.8945318535
0	7835	1673353.500772384128	3745.5932153156
0	7838	1673841.231678100435	2798.9596394822
0	7843	1675246.822344395464	4477.6145146228
0	7848	1675924.106447235813	3175.8167671273
0	7851	1677353.484015958516	2521.6265154071
0	7858	1678564.397283014974	2123.0948552024
0	7861	1679493.13188409446	2806.5387777518
0	7870	1681286.637178994848	4608.9114737464
0	7875	1682751.137691526807	4101.1762973852
0	7882	1684145.215891348331	4067.0075885486
0	7885	1685046.841016155801	2662.8267263062
0	7890	1685947.057999740488	2805.6814882206
0	7891	1686595.37263484685	4093.8047296135
0	7898	1688031.613100529781	2947.8079804452
0	7905	1689066.008042008749	2789.7579257609
0	7910	1689710.608430206909	3882.6216056244
0	7919	1691342.405974120035	3171.9576575328
0	7920	1691815.68930242224	2739.5971317077
0	7929	1693532.400553207978	3721.0480831331
0	7932	1694241.178125771827	3284.0399648761
0	7935	1694877.824426279536	2384.3175932765
0	7942	1696085.458419006451	3305.2442639368
0	7949	1697235.123665677517	2993.4405288426
0	7952	1697955.008744239009	3192.6274548518
0	7957	1698718.308477359957	3142.0129211387
0	7966	1700439.271345851145	3845.0188638875
0	7967	1701129.3408583851	2620.8654895658
0	7974	1702646.40996968387	2984.7775123548
0	7981	1704071.92474775961	3509.2661221046
0	7988	1705114.382175193302	3050.6532743806
0	7993	1705696.981453453324	2311.0854469473
0	7996	1706591.263222228869	2565.8354949905
0	8003	1708171.814567665703	2880.8051765431
0	8004	1709008.615515986591	2303.3636637032
0	8013	1710554.978719144262	3796.953389165
0	8018	1711583.135925117083	3842.8717059782
0	8027	1713325.49864421612	2757.927842997
0	8032	1714332.961247675255	3518.6391105875
0	8035	1714713.455607975036	2530.587155465
0	8042	1715894.688396994159	2368.6462667305
0	8051	1717356.986573897437	4035.1330582984
0	8054	1718050.333548523621	2106.6575351637
0	8059	1718395.356010669046	2427.0105045056
0	8064	1718984.677066770517	2591.0420092754
0	8073	1720621.270537655935	3636.8894579122
0	8082	1722364.690403686971	3740.2091420721
0	8083	1723328.692330699549	1775.9528193623
0	8088	1723900.254834350334	3073.0138248531
0	8089	1724621.934654051574	2317.4383358331
0	8090	1725013.952953554826	1668.016900518
0	8095	1726016.207514214466	2495.7365581999
0	8098	1726324.473176105085	2556.6964740632
0	8105	1727839.909325027976	3464.7201432148
0	8106	1728192.570379329983	1670.1484761201
0	8111	1729315.279854973916	4034.6538135549
0	8116	1730776.060695061598	2590.9132045694
0	8121	1732234.153667651255	4352.6494299062
0	8126	1732978.539567114924	1896.0357821546
0	8133	1734612.340123253082	3094.86679486
0	8140	1736263.713978510489	3866.4523025276
0	8143	1737062.358289025863	2428.714340413
0	8148	1738755.875276704458	3036.2314349972
0	8151	1739280.787364719575	3578.3444455359
0	8156	1740711.922907363763	3312.8280880395
0	8159	1741549.760734825535	3403.9882077836
0	8166	1742967.716623214214	3400.5926900776
0	8173	1744447.195092053293	4926.5479981899
0	8178	1745969.084075675486	4525.7976024644
0	8183	1746738.732394622779	3572.3189457553
0	8188	1747428.307168116002	3469.5796752116
0	8197	1749042.700079153432	3769.8015123373
0	8202	1750485.359823284811	4086.0003116308
0	8207	1751404.704748559884	3836.2737466581
0	8210	1752200.393118406787	3232.8544073738
0	8215	1752719.399631768606	2344.1333514405
0	8222	1754335.827192175343	3820.6444256706
0	8223	1754661.371947685398	1180.6543707848
0	8230	1756036.203439836532	3998.5216288827
0	8233	1757041.229658038497	4136.8794372305
0	8240	1758492.538526351705	4298.3915130375
0	8243	1758985.429735039502	2668.5501663946
0	8246	1760111.207769205935	2969.8022553697
0	8253	1760881.042100745395	2608.7622064864
0	8256	1761225.061505427726	3802.457136428
0	8263	1762391.494514001675	3452.1428086795
0	8266	1762757.386909215853	1042.3981940607
0	8269	1763316.704710316986	2100.8458126802
0	8274	1764306.50172501351	2709.6573842922
0	8279	1765373.306436790296	2786.0074924305
0	8284	1766302.810211246976	2847.6199712371
0	8291	1767432.985859457546	4389.2330293078
0	8296	1769078.704662574598	2648.8688140875
0	8301	1769911.718589859226	2470.2829436632
0	8304	1771253.634951054261	4810.1360058412
0	8307	1771618.540961109244	1576.8909440143
0	8314	1773119.681722484671	3847.032828466
0	8321	1774874.904699926407	3776.440514694
0	8328	1776228.413419355781	3563.2297954056
0	8331	1776815.769939310991	1920.4136981629
0	8338	1778109.031297895268	2758.1547068898
0	8339	1778762.382102431871	3155.8127394877
0	8344	1779727.029381157041	2471.1885293713
0	8349	1780977.767047612139	4240.7367761247
0	8352	1781728.60285334769	3380.8390703984
0	8357	1782514.417666406513	3243.8205976272
0	8360	1783282.599184080169	2209.412699542
0	8369	1785100.986029673511	3414.1693552723
0	8372	1785607.954438333543	1864.1845651204
0	8381	1787211.016690218965	4490.4909559758
0	8386	1788945.874020969639	3857.28944242
0	8389	1789393.059311318355	3426.3919620775
0	8392	1790488.407584326486	2891.8576452183
0	8397	1791330.934384279096	3237.9199808696
0	8408	1793347.812721599037	4146.6839487897
0	8413	1795000.698169623645	4155.7052766206
0	8416	1795707.476613228353	2959.7500400618
0	8423	1797019.942163676168	3283.7669027271
0	8426	1797906.454372359585	2171.375500015
0	8433	1799347.795353597175	3474.5651442558
1	11	4082.922730688006	0
1	14	5018.404925870709	566.29049708135
1	19	6326.335962396116	0
1	30	8356.264075334185	453.55283981189
1	35	9372.761742817239	1378.4060626058
1	36	10466.10412511509	439.33067691978
1	41	11617.830906109886	1637.3942432692
1	46	12287.27465006523	2446.6628911905
1	57	14707.096530077981	2723.5674548429
1	64	16442.829261557201	3631.6619273275
1	69	18047.960138157943	4447.795248474
1	74	19546.697983914057	3145.9290096536
1	79	20627.414204645904	4876.9762110896
1	80	21104.82584028505	4010.8380740276
1	89	22485.774817666972	3615.620732191
1	94	24202.778195589783	3246.8352110591
1	97	24661.639605229723	3136.3722039387
1	104	25672.040239325727	2269.7294637328
1	111	27077.417506207715	2087.2184168547
1	114	27580.244766105901	3000.8531055646
1	119	28366.456272290092	2451.6960099572
1	124	29584.599855984565	1551.3974918285
1	127	30464.333323063333	3026.5675534029
1	134	32118.231030134488	3218.716354575
1	139	33337.826222903099	3523.6355405068
1	148	34684.273016033698	2815.8887797035
1	151	35963.983064331118	3431.5240457654
1	154	36520.347443525683	3479.0805748198
1	161	37357.575698825534	2246.2589554489
1	166	38569.321698881689	2026.7485461663
1	173	39724.61686281022	3928.7137793144
1	180	41507.17761057895	4815.8551384695
1	185	42786.363088991496	5018.5127423611
1	194	44579.312437400225	4919.317774591
1	199	45578.778596618216	5774.1659365129
1	206	46814.04375561979	5092.2883129679
1	213	48126.172239007432	6167.9950713878
1	222	49593.690461595547	4942.1785455197
1	231	51125.180307962005	5876.1944475118
1	236	52435.66975453869	7358.5581234656
1	243	54200.35895237234	7057.2762312368
1	250	55965.500588575383	8105.4473784752
1	259	57374.39596059267	8726.4676708728
1	270	59143.776056310167	10286.529516103
1	277	60476.767835696233	11332.132689538
1	286	62154.121044999925	11448.619298288
1	291	63304.023217689251	12355.5710254
1	296	64367.476659128448	11720.743778162
1	299	64808.387418114586	13078.153162147
1	302	65972.307160869247	13692.816772498
1	313	67666.251457622281	13029.300593887
1	314	68163.948250631808	14925.854601315
1	319	69434.709458495497	13033.049022197
1	322	70168.818594957709	13362.773351138
1	327	70743.605640158064	12707.440609694
1	334	71872.837866400375	12324.07243608
1	339	72727.550010010607	13724.574863096
1	346	74044.274818967104	13576.442061109
1	353	75447.065849625513	14598.65563293
1	354	76120.195559249267	15136.567249428
1	361	77554.355596401736	14435.857860488
1	368	79198.413180350333	15852.506400668
1	373	80835.744826588787	16577.080601128
1	378	81806.432894384496	16802.32883594
1	387	83574.28928024602	16852.75860806
1	394	85094.986009737485	16462.856405997
1	401	86716.64081099444	17195.243762573
1	406	88339.243850321518	18938.718807301
1	411	89521.94147540723	19596.692825784
1	416	90573.928050021651	19621.551157557
1	417	91219.727584719668	18897.154640872
1	424	92485.712879500362	18622.396162245
1	429	93695.302704814832	19487.901400658
1	436	94700.500987423594	20088.378796005
1	439	95432.487493171367	20537.004215643
1	444	96307.680832198831	21844.638210721
1	447	97250.833880086439	21293.55138063
1	450	97754.044982953938	21332.414994598
1	455	98501.468474697331	19696.914877044
1	458	99332.538471347662	19691.440253402
1	465	100460.262853978211	19197.244324372
1	474	102213.705502962703	19641.262226156
1	485	103858.52540039924	19953.653405886
1	490	105496.410437696623	20832.182144746
1	493	106601.944213639954	20784.939362551
1	502	107573.833474167632	21339.360625134
1	505	108945.195421739491	20992.918853997
1	514	110743.465926032523	21151.688305777
1	515	111099.805002752701	22243.368479074
1	518	111643.544399784887	20460.928081535
1	525	112866.88375098166	20146.533999592
1	530	114438.896091934302	20471.619394957
1	533	115355.991178541453	20178.485587472
1	538	115865.950053278366	20581.584749278
1	541	116269.700538623156	19867.033665301
1	546	117615.843697311366	19655.665905448
1	551	118545.956748817125	19644.06027447
1	560	120145.530237816283	19611.970796948
1	561	120791.643750225203	21036.269442178
1	564	121109.214872494349	19708.655992406
1	567	121949.181961105214	19923.68988879
1	572	123344.167803693572	19107.37490491
1	577	124153.273527743304	19379.82682907
1	578	124534.780506812977	19817.291046144
1	583	125343.258181493739	17289.935512701
1	588	125671.04087267072	17337.078750017
1	591	126666.217336943383	17792.25101578
1	598	128278.076780028651	15996.533594909
1	603	129490.456081414605	16490.431666025
1	604	129838.214467302906	16343.49804651
1	611	131313.68083935232	16191.823972855
1	614	131689.235927467245	16078.335926402
1	621	133037.883043871272	15547.344425227
1	622	133738.776844879623	16073.795981705
1	627	134959.72577368376	15524.129542988
1	632	136556.147937406797	14103.232003748
1	639	137951.33097684012	13803.891632706
1	642	138848.662577918742	14910.447890055
1	647	139463.428209023562	13905.901722726
1	652	140091.552260820766	13904.200460413
1	657	141500.878455676151	13011.018572375
1	666	143256.233483017435	13638.231805293
1	667	143684.176833601681	15117.257836042
1	670	144071.220577298676	15536.754033063
1	677	145102.977136289713	13546.499462449
1	682	146867.583721736458	13958.651289926
1	685	147436.989237950195	13541.463063564
1	688	147774.007331114274	13414.984368137
1	689	148174.881777330313	11943.051015493
1	696	149590.633590845403	11898.825142882
1	701	150906.255955318932	11766.265828977
1	706	152551.26289073379	11832.852363819
1	713	153555.508672026929	12338.578083669
1	720	155215.135805262264	12939.731097431
1	725	155858.964789798495	13219.841261278
1	726	156638.990506972198	12787.569262669
1	735	158295.627972856176	11976.687719347
1	740	159842.200659331878	12578.815788729
1	743	160142.28368487676	13752.714619157
1	746	160910.074015636941	12352.848920273
1	751	161848.251321678994	12818.037380115
1	752	162426.705236476859	12555.492197396
1	757	163746.52441882064	11547.680362361
1	762	165077.756827999851	12633.654213161
1	769	166560.865960107198	12395.64256731
1	772	167957.149663916802	12382.281648461
1	775	168727.688260073787	12847.955106874
1	778	169347.656222409582	11821.261472767
1	781	170355.283586145392	11357.362663723
1	782	170693.777656322359	11971.446631243
1	789	172061.153388675316	10671.01671081
1	794	172922.408356494284	11491.985378321
1	795	173544.729461311376	9826.570913312
1	802	174261.17252390833	9595.6336105009
1	807	175856.955925840897	8943.822327652
1	814	177169.226943491971	9493.591576349
1	819	177731.590251834145	9048.0569775682
1	820	178625.679807504652	7593.5852802358
1	825	179620.405102218514	7298.2581637334
1	828	180195.324861584244	6816.6565247811
1	833	180712.596505391424	6854.8482230399
1	836	181199.846096732666	5917.9098304594
1	843	182582.9670878593	5585.0294055417
1	850	184003.458444331785	6162.0585772907
1	851	184629.634185950284	7323.4906112775
1	854	185054.767838073907	6014.9884581333
1	859	186183.056545257581	4860.9011799563
[...]
1	6170	1317025.717449607436	12899.494810263
1	6173	1317661.294096685123	13147.41229231
1	6180	1318771.122354338985	12695.467449725
1	6185	1320037.315364903879	13929.071793566
1	6188	1320609.216855769154	13288.50525571
1	6191	1321511.299227015224	11799.194386345
1	6198	1322734.695063158979	12846.671039122
1	6199	1323234.417352848796	12237.807397731
1	6206	1324667.276808153948	13148.498810828
1	6211	1325501.660754717997	12630.058294628
1	6222	1326483.545557363069	11346.007175976
1	6227	1327464.793461095652	12240.527379443
1	6232	1328951.924861082918	12082.300627953
1	6235	1330030.313380155823	12503.402141389
1	6240	1331635.463063302561	11685.152977821
1	6245	1332631.005095550902	12220.999293379
1	6248	1333222.296409146041	11498.355545453
1	6253	1334141.998564498611	10945.745848585
1	6260	1335037.900633039065	10772.687804187
1	6267	1336735.985723720044	9488.294417155
1	6272	1338286.904125940167	11299.147450947
1	6277	1339077.31749834504	12993.959853658
1	6280	1339548.636189918146	12081.746228272
1	6285	1341070.2323727078	12501.43505889
1	6286	1341547.262843395696	12283.354566665
1	6289	1341896.369679132589	10990.706838202
1	6302	1343504.185937298574	10443.620814476
1	6311	1345029.274466936589	10667.867223616
1	6314	1346660.673917597272	11586.163828382
1	6317	1347195.938440784924	12329.256513971
1	6324	1348227.696230169498	12220.991354669
1	6329	1349745.550722302981	13048.88065299
1	6332	1350085.032716766112	11941.063093836
1	6337	1351463.351085176804	12095.984243788
1	6342	1353038.958834065237	12072.160398471
1	6349	1354107.482559979075	12196.348584839
1	6354	1355231.610433501305	12782.745674718
1	6355	1355990.64464264095	12263.046901091
1	6366	1357675.016086874643	12462.71840902
1	6371	1359026.901350054072	14080.711652292
1	6376	1359806.290239561463	15323.533917661
1	6379	1360536.019760370368	13410.002135206
1	6382	1361263.782146293783	13460.627916735
1	6385	1362097.673476534077	13105.883630225
1	6388	1362869.772633235083	12233.982865582
1	6393	1364037.687600357571	11545.50336278
1	6396	1364689.956051833109	10949.562092079
1	6399	1365192.204057611638	10073.921483243
1	6410	1366972.243660572102	10935.646568541
1	6411	1367328.46017675486	11929.140455788
1	6416	1367642.33216398873	10152.975239558
1	6417	1368620.079193683459	10410.145402187
1	6426	1370197.040608059732	10382.295563235
1	6429	1371326.517108106172	10404.207163956
1	6432	1372540.553285088507	10913.64325129
1	6445	1374234.673198429054	11426.78263667
1	6450	1375862.957157148166	12269.236438908
1	6455	1376446.130025107531	13099.71633309
1	6456	1376768.594416184468	12525.787104154
1	6463	1377999.394777743263	10542.545116623
1	6464	1378581.516297999887	12192.799825687
1	6465	1378972.085516271299	11658.982504858
1	6474	1380615.024109161577	10406.485793414
1	6475	1381155.413985229215	10077.282094513
1	6478	1382010.706845950453	10223.451290396
1	6487	1383339.181802119246	9333.3914590767
1	6492	1383648.486930015615	9957.920189132
1	6501	1385227.437907504036	9064.1992392484
1	6504	1386493.885841430283	9755.236822064
1	6511	1387865.335613186589	10167.726271204
1	6516	1389038.169028703241	9218.9789578551
1	6519	1389552.453106572038	8909.3617682811
1	6522	1390653.037788835472	7290.280660498
1	6525	1391101.246523531272	8001.7766801175
1	6528	1392215.42049134162	6553.265105118
1	6535	1393406.988478498652	7191.6769912932
1	6540	1394253.415331198021	8435.6501733419
1	6545	1395724.743108172088	8720.4607230378
1	6554	1397170.634421729601	8630.4035503417
1	6555	1397697.863425640508	7797.2794744419
1	6562	1399185.169637203335	8118.2400049875
1	6567	1400521.475801663592	8907.7225414803
1	6576	1402233.634735364586	8680.8686441509
1	6577	1403121.754660830021	8973.271986586
1	6582	1403616.183232795566	7754.0173453745
1	6593	1405371.379538322918	7449.6918510413
1	6594	1405824.65585223411	7943.2252643164
1	6599	1407171.830410743251	7310.0744801341
1	6602	1407789.107382972844	8268.9558633138
1	6607	1409335.52959926904	6763.7436945224
1	6612	1410082.484992803194	7086.8472639704
1	6617	1411010.030127782494	6508.1909915898
1	6618	1411823.369627958283	6287.1066882508
1	6625	1413086.788624618322	6663.1807872327
1	6630	1414237.649457226627	6813.6651356472
1	6639	1415888.264678651587	6159.9185995292
1	6640	1416456.340348301575	7780.5470251478
1	6643	1416797.820081375659	6660.7325625373
1	6648	1418088.32798267261	6332.4114050483
1	6657	1419819.929300272026	6622.3933794536
1	6664	1420840.091015445189	5864.5598151488
1	6669	1421892.750705778719	5560.2660473669
1	6672	1422728.106586751648	5458.3389787003
1	6681	1424428.866572538511	6687.6175117213
1	6686	1425636.431101290629	6903.6547725555
1	6691	1426266.341056209178	7597.2687463509
1	6692	1426820.858237519981	6669.2530940054
1	6695	1427366.367857926646	6847.1968799131
1	6700	1428056.746668974059	6175.5445576273
1	6705	1428996.975940349633	4760.4059757432
1	6712	1429885.442608385468	4706.6435927991
1	6719	1430915.858872770453	5137.098650448
1	6726	1432659.474285110021	5174.1115911864
1	6729	1433247.734158742363	6684.5380818704
1	6734	1434689.729568595188	6723.2093587518
1	6735	1435042.559282505075	6739.7672130028
1	6738	1435568.631997984024	6188.020382775
1	6743	1436112.009710655669	5168.31769282
1	6750	1437278.253994044038	4723.9810265601
1	6753	1438103.556928737211	4395.8518998697
1	6758	1438805.539961555163	3640.5116185779
1	6763	1440050.392764341208	4415.2723909356
1	6768	1440919.892427418503	3987.3819892528
1	6773	1442220.117843453895	2942.027154495
1	6774	1442522.509695310268	4286.0493434127
1	6781	1443787.975719315122	3650.8113741875
1	6784	1444803.624938079278	3403.2189007849
1	6789	1446326.049340912263	3192.2949361615
1	6798	1447431.547677470493	3780.9357120423
1	6801	1448498.425107495981	3361.82441446
1	6808	1449615.414847852784	3335.6586025329
1	6813	1451011.070083896751	3310.9900670825
1	6816	1451669.178342120843	2665.1721547823
1	6823	1453384.919719048897	4255.0802434562
1	6828	1454116.282788966904	4496.8424382387
1	6831	1454776.324286358553	5220.1064124238
1	6838	1456158.908592607017	3824.9111910118
1	6843	1457204.025219683658	4452.9298319249
1	6844	1457883.306025969919	3990.9729959909
1	6851	1459664.348099311006	4127.2804375039
1	6860	1461120.047691394699	5637.2864678269
1	6865	1462218.551788316232	4692.9200277664
1	6868	1463048.066177079578	5630.1246390212
1	6873	1463587.310995767017	5834.103005589
1	6878	1464739.554366376375	4344.8038094211
1	6879	1465072.107077809175	3017.9084138945
1	6884	1466633.352440502619	3797.3789200187
1	6889	1467522.205981216518	3938.6872358155
1	6894	1468038.170779799236	3378.5882840166
1	6899	1469542.886895756362	2316.2322719581
1	6904	1470455.902986461422	2953.0444310512
1	6911	1471899.348358693658	2821.4781254064
1	6912	1472446.556735923639	2504.6938051237
1	6923	1473993.111320282458	3465.9698896576
1	6926	1475023.020459618545	2920.5921121175
1	6929	1475327.157468767962	3148.8566055195
1	6934	1476856.692178594074	2019.4679269334
1	6937	1477371.572028170465	3261.6206329549
1	6944	1478974.664893909483	2955.29168949
1	6947	1479797.726992447986	2814.4237885717
1	6952	1480896.80785615941	2366.1752720364
1	6961	1482649.125511245927	2068.5140591813
1	6964	1483827.292700903615	3485.466960934
1	6971	1485050.590548757589	3500.4200271797
1	6976	1485682.569225831083	3476.5353215626
1	6985	1487405.014358461029	3501.5174362343
1	6990	1488066.268885927401	4333.2615955733
1	6991	1488753.3228135669	4857.260607183
1	7000	1490337.599695986263	3747.433691402
1	7001	1490983.200166770383	4785.6370622758
1	7006	1492358.392679365478	4279.6245203354
1	7013	1493574.127288721628	5003.4301533597
1	7020	1495336.212146468587	4939.1226939624
1	7025	1496746.13150800591	6477.9207160464
1	7028	1497664.403244084806	7053.4071646398
1	7031	1498178.871418582403	6320.4550025985
1	7038	1499010.703138494992	5461.565096397
1	7045	1500073.86198886683	4059.1998724267
1	7050	1501346.110791061202	3606.4775486011
1	7057	1502449.935261556076	4942.811262561
1	7062	1503980.62850232249	4135.904702358
1	7065	1504402.125781704801	4967.9481986677
1	7070	1505757.601300394292	4921.3172992459
1	7077	1506646.739717200528	5783.1232985482
1	7084	1507599.17254820479	4895.9587812424
1	7087	1508512.704805587548	6235.8868777519
1	7090	1509311.078172479886	5235.4412142886
1	7097	1511095.365794864613	5659.1454480076
1	7100	1511944.362838030923	6865.4131660005
1	7105	1512397.39213376319	5821.0190209793
1	7106	1513457.546750782188	5230.8065383695
1	7111	1514819.659147714395	5510.9889514279
1	7122	1516593.328888085801	6272.2611513455
1	7127	1517496.09566652229	7318.9884934109
1	7130	1518060.251429490875	6236.9737846311
1	7135	1518839.962425758261	6617.9718081839
1	7138	1520133.73413363019	5250.1708514756
1	7143	1520899.705891404431	6262.8588234075
1	7150	1521895.547910919543	4057.5015643844
1	7155	1523003.1005712693	5050.0173928449
1	7160	1524314.216510974933	6098.3793191845
1	7169	1525885.825517191683	6258.6889757076
1	7172	1526748.892505793032	7392.4983136822
1	7175	1527666.929136472885	7133.5127355997
1	7182	1529415.517342672814	6168.3735775296
1	7187	1529938.588549965192	6917.4880057108
1	7190	1531124.008426512722	6557.0235627238
1	7195	1531891.182526038159	8099.2249046685
1	7204	1533302.718373225201	7569.8809371097
1	7209	1534696.139915892985	6926.6722592292
1	7214	1535265.522632282358	9080.9190650471
1	7219	1536810.81750355674	8893.742868444
1	7224	1538111.944147409071	8624.4025375927
1	7227	1539043.854240886998	8837.3857070692
1	7234	1540733.253060537521	8047.1681579948
1	7239	1541153.953839093577	7778.947257204
1	7240	1541648.250939860139	8000.9574968135
1	7245	1542482.26183061501	8219.6694194572
1	7252	1544083.412276557777	7022.1399975708
1	7257	1545746.292307670359	7928.7108014105
1	7262	1546479.652466951069	8216.838888824
1	7265	1547479.945865180474	8174.868656206
1	7266	1548097.402126668152	7004.097280791
1	7273	1549770.881380629857	6188.9016504865
1	7282	1550925.689610815738	7753.3404347487
1	7285	1551807.69877228899	7188.662835164
1	7288	1552282.757405494471	7549.9763677362
1	7293	1552869.895719015171	6369.2227941938
1	7296	1553980.229921615814	5535.0148750004
1	7301	1555228.08613528045	4211.2626753515
1	7304	1556012.359496788253	4829.9880410777
1	7307	1556887.153636501302	3859.8608302418
1	7314	1558435.355512099472	4317.66949757
1	7321	1559965.989189664965	4995.6289882539
1	7326	1561248.384755733555	4853.1144841109
1	7327	1561590.769779402895	5810.7721691486
1	7336	1563074.698016583121	4479.1180860484
1	7341	1564510.100999521225	4111.6737881675
1	7350	1565911.642543017066	4795.1869085664
1	7351	1566790.384493116423	5200.1408147626
1	7356	1567836.927526630595	5384.8789731274
1	7363	1569104.635334294423	4847.1326264553
1	7366	1570268.086442747287	5752.4509127252
1	7373	1571489.637707686186	6928.2860832755
1	7380	1573217.961430829153	5907.1657623863
1	7389	1574719.871560111777	7357.6038385509
1	7392	1575186.077519157105	8189.3470584182
1	7397	1575904.9261439593	7059.0993304504
1	7404	1577392.106736987033	5453.222942655
1	7409	1578351.724698487804	6979.8821780132
1	7416	1580026.452791411565	6567.6711393753
1	7421	1580849.313246854716	7733.9265203336
1	7422	1581211.33280745721	7185.6148213847
1	7427	1581741.388324624994	7107.3518417543
1	7432	1583468.504546606117	6097.7298495127
1	7437	1585267.316544195772	7821.0612677503
1	7442	1586022.639822517657	8085.1419899846
1	7447	1586545.200176909701	8661.6722366307
1	7448	1587582.876222767071	8587.5633331016
1	7455	1588809.719989705027	8321.3002992561
1	7464	1590553.464245167689	9873.8929397659
1	7469	1591548.030815972143	9694.2814167123
1	7472	1592809.539368399547	10019.96553666
1	7479	1593779.264747724065	10633.598878398
1	7488	1595522.444401681551	9622.6480876794
1	7493	1596987.568901502655	8856.3966901274
1	7496	1597865.644079237373	10931.074567954
1	7501	1598862.079091160686	10832.344399067
1	7508	1600654.431954003067	10420.263215317
1	7513	1601908.716271212452	9953.0908078887
1	7518	1603021.331255673558	9265.981697361
1	7529	1604691.419498948508	9289.2685385887
1	7534	1606035.905017890164	9737.9181836732
1	7539	1607481.805063295306	10555.994519033
1	7544	1608596.014759317168	12270.2495798
1	7549	1609949.640769511589	12172.709364211
1	7552	1610449.254764663183	12083.139514667
1	7559	1611909.436773299367	11821.59789966
1	7568	1613654.077603225724	10987.867558259
1	7569	1614218.705751397775	12029.907493852
1	7574	1615018.966834643052	10766.791002592
1	7579	1616185.526521015109	9550.6034411956
1	7580	1616749.948987760709	10613.274696283
1	7583	1617391.508585633838	10995.19682955
1	7590	1618866.817376157397	8887.4345461372
1	7595	1620270.097937900701	9659.0019967407
1	7600	1621801.199329504871	9411.0270130914
1	7605	1623168.556728540116	9658.8855619775
1	7612	1624499.584420560987	10396.720562247
1	7617	1625577.134036505723	10861.37977615
1	7622	1626961.467866320291	10177.123328671
1	7629	1628139.131526765542	11651.908246335
1	7630	1628517.742078774737	10396.971861133
1	7635	1629427.435887255834	9836.8216578383
1	7638	1630529.083929886238	9813.4754060302
1	7639	1630852.598097757564	10133.044796297
1	7646	1632172.723775566683	8214.3004594836
1	7649	1632858.956239326053	7692.0114441309
1	7654	1633673.113807663449	8388.5672228644
1	7657	1634607.028918736742	6808.0257349648
1	7660	1635396.981767029629	7479.4834301574
1	7669	1636929.489669925661	7492.1957154293
1	7672	1637523.173220246227	8285.5424667941
1	7675	1638206.932134088257	7833.5359987104
1	7682	1639643.32608708659	5490.2034150436
1	7687	1640991.591231781187	7218.0650657974
1	7696	1642637.74122968329	6964.8612344172
1	7703	1644217.049974040258	6333.0038547283
1	7708	1645955.548996199052	7020.9195638308
1	7713	1647102.444666833747	8457.5051888823
1	7716	1647459.312159684617	7412.6697670435
1	7719	1648344.657793943901	7488.6739253998
1	7726	1649744.347702385989	6789.0479190974
1	7727	1650214.658249030021	7388.9607352903
1	7732	1651232.817204482985	6754.9620227655
1	7737	1652244.977774564308	5788.8127545593
1	7740	1652714.160166634378	5879.4580393005
1	7743	1653990.176291694065	5057.3270906461
1	7748	1655558.236598479693	5199.9051725725
1	7753	1656643.135179695805	5304.5841992134
1	7758	1657372.832137509381	5070.2838037396
1	7763	1658593.603896629197	4983.9366108645
1	7766	1659306.113503198271	3581.2051378889
1	7771	1660356.919695949314	3015.1409095852
1	7784	1662094.008778268604	3608.2467954839
1	7787	1663251.25494017279	3922.8040350135
1	7794	1664650.477621425076	4276.1444823118
1	7797	1665190.071130776911	4381.6804069793
1	7804	1666829.030838771856	4433.4709419636
1	7807	1667377.255679969809	5572.6093560224
1	7810	1668615.382088930479	5969.9891289929
1	7815	1669849.565574503637	5544.3160096183
1	7820	1670831.707725674047	6078.3044683048
1	7823	1671344.687438313982	4291.6049554478
1	7828	1672033.748160163073	4956.6022128565
1	7835	1673353.500772384128	3646.4798186207
1	7838	1673841.231678100435	4349.7758380836
1	7843	1675246.822344395464	3283.5946516134
1	7848	1675924.106447235813	3893.8918006606
1	7851	1677353.484015958516	4420.1190584572
1	7858	1678564.397283014974	5238.6699652998
1	7861	1679493.13188409446	4976.5005181544
1	7870	1681286.637178994848	3729.5658501098
1	7875	1682751.137691526807	4006.205388112
1	7882	1684145.215891348331	4412.7993474249
1	7885	1685046.841016155801	5732.6101736398
1	7890	1685947.057999740488	5703.5630852915
1	7891	1686595.37263484685	4609.6228149254
1	7898	1688031.613100529781	5429.679137771
1	7905	1689066.008042008749	5981.4309143694
1	7910	1689710.608430206909	4795.6684241071
1	7919	1691342.405974120035	5694.2593536805
1	7920	1691815.68930242224	5889.8786444915
1	7929	1693532.400553207978	5053.1619106187
1	7932	1694241.178125771827	5036.2809298094
1	7935	1694877.824426279536	4837.1018565958
1	7942	1696085.458419006451	4116.8359990697
1	7949	1697235.123665677517	5253.4188434947
1	7952	1697955.008744239009	5322.9102162877
1	7957	1698718.308477359957	5129.8712042626
1	7966	1700439.271345851145	5399.9433597783
1	7967	1701129.3408583851	6456.2640697695
1	7974	1702646.40996968387	6551.0841663927
1	7981	1704071.92474775961	7137.2414357029
1	7988	1705114.382175193302	7563.2036399329
1	7993	1705696.981453453324	8400.6012787577
1	7996	1706591.263222228869	8043.397475034
1	8003	1708171.814567665703	8831.6249472555
1	8004	1709008.615515986591	9595.4401876079
1	8013	1710554.978719144262	9135.4127711384
1	8018	1711583.135925117083	9274.9498025514
1	8027	1713325.49864421612	11053.748529637
1	8032	1714332.961247675255	10604.311268893
1	8035	1714713.455607975036	10853.364201263
1	8042	1715894.688396994159	11677.577797906
1	8051	1717356.986573897437	10620.830642874
1	8054	1718050.333548523621	11766.473918455
1	8059	1718395.356010669046	11218.333850848
1	8064	1718984.677066770517	11064.306002925
1	8073	1720621.270537655935	9998.7636858132
1	8082	1722364.690403686971	10548.987480579
1	8083	1723328.692330699549	11847.220900236
1	8088	1723900.254834350334	10774.314233218
1	8089	1724621.934654051574	11098.940972239
1	8090	1725013.952953554826	10926.638813107
1	8095	1726016.207514214466	10547.330080415
1	8098	1726324.473176105085	10129.764503217
1	8105	1727839.909325027976	10130.004940904
1	8106	1728192.570379329983	11773.573967395
1	8111	1729315.279854973916	10208.432525746
1	8116	1730776.060695061598	11654.047762393
1	8121	1732234.153667651255	10899.348380626
1	8126	1732978.539567114924	12906.561009935
1	8133	1734612.340123253082	12669.772575377
1	8140	1736263.713978510489	12926.787053584
1	8143	1737062.358289025863	14354.491700535
1	8148	1738755.875276704458	14724.364531925
1	8151	1739280.787364719575	13809.516046196
1	8156	1740711.922907363763	13738.144021947
1	8159	1741549.760734825535	12947.530420963
1	8166	1742967.716623214214	12830.089361756
1	8173	1744447.195092053293	12125.763486489
1	8178	1745969.084075675486	12322.673807968
1	8183	1746738.732394622779	12338.778277393
1	8188	1747428.307168116002	11467.777492711
1	8197	1749042.700079153432	11205.785093014
1	8202	1750485.359823284811	10707.107850001
1	8207	1751404.704748559884	10105.122080538
1	8210	1752200.393118406787	9972.3733942956
1	8215	1752719.399631768606	10107.82754689
1	8222	1754335.827192175343	8869.128501392
1	8223	1754661.371947685398	10657.696419745
1	8230	1756036.203439836532	8777.7545704739
1	8233	1757041.229658038497	8443.7164150877
1	8240	1758492.538526351705	8132.1419372689
1	8243	1758985.429735039502	9135.956539074
1	8246	1760111.207769205935	9020.6253784709
1	8253	1760881.042100745395	9470.6247502472
1	8256	1761225.061505427726	8104.0168820182
1	8263	1762391.494514001675	7933.9258221444
1	8266	1762757.386909215853	9525.9152945364
1	8269	1763316.704710316986	8687.2014779365
1	8274	1764306.50172501351	8756.3170432113
1	8279	1765373.306436790296	8451.2844483834
1	8284	1766302.810211246976	8737.7576177241
1	8291	1767432.985859457546	7459.355499479
1	8296	1769078.704662574598	9077.2437129635
1	8301	1769911.718589859226	9547.3617230309
1	8304	1771253.634951054261	7558.5298938677
1	8307	1771618.540961109244	9406.5743488027
1	8314	1773119.681722484671	8295.6401602132
1	8321	1774874.904699926407	9414.630657644
1	8328	1776228.413419355781	10533.081162139
1	8331	1776815.769939310991	11858.891111682
1	8338	1778109.031297895268	11988.850387163
1	8339	1778762.382102431871	11105.972943013
1	8344	1779727.029381157041	11082.34465553
1	8349	1780977.767047612139	9628.2093452755
1	8352	1781728.60285334769	9825.928906328
1	8357	1782514.417666406513	9556.0341345845
1	8360	1783282.599184080169	10156.173315598
1	8369	1785100.986029673511	10018.942194642
1	8372	1785607.954438333543	11594.194794889
1	8381	1787211.016690218965	9704.8053864855
1	8386	1788945.874020969639	10365.520200343
1	8389	1789393.059311318355	10425.698203035
1	8392	1790488.407584326486	10669.084326946
1	8397	1791330.934384279096	10466.448146151
1	8408	1793347.812721599037	10336.038196692
1	8413	1795000.698169623645	10575.433276361
1	8416	1795707.476613228353	10745.477908175
1	8423	1797019.942163676168	11202.509933501
1	8426	1797906.454372359585	12103.168968461
1	8433	1799347.795353597175	11554.38213679
2	8438	1800000	0
2	8438	1800000	25921.104403446
2	8438	1800000	24247.352493927

