version 2
run Parallel_3Teachers-2-20190104-10:50:47-18332
attr configname Parallel_3Teachers
attr datetime 20190104-10:50:47
attr experiment Parallel_3Teachers
attr inifile omnetpp.ini
attr iterationvars "$0=\"uniform\""
attr iterationvarsf uniform-
attr measurement "$0=\"uniform\""
attr network ParallelExamSession
attr processid 18332
attr repetition 2
attr replication #2
attr resultdir results
attr runnumber 2
attr seedset 2
param **.teachersNumber 3
param **.answerTimeDistribution "\"uniform\""
param **.minUniform 300
param **.maxUniform 900
param **.scaleLognormal 6.2854
param **.shapeLognormal 0.4724

vector 0 ParallelExamSession examinationTime:vector ETV
attr source examFinished
vector 1 ParallelExamSession studentID:vector ETV
attr source student
0	1315	260520.576219074446	1395.9161994047
0	1316	260721.136869024498	1553.3868472092
0	1317	260766.401948081351	1580.4263963364
0	1324	262108.904406800888	1342.5024587195
0	1325	262216.700020199659	1696.1238011252
0	1326	262652.100336318848	1930.9634672944
0	1333	264134.337485907621	2025.4330791067
0	1334	264236.994444904866	2020.2944247052
0	1335	264387.653190270079	1735.5528539512
0	1342	266102.40030311981	1865.4058582149
0	1343	266326.478430256261	1938.8252399862
0	1344	266582.266624085627	2447.929138178
0	1350	267780.548523645861	1454.0700933896
0	1352	268125.786628481022	1543.5200043954
0	1353	268134.140905598195	2031.7406024784
0	1360	269923.43177553268	1789.2908699345
0	1361	269993.492135871214	2212.9436122254
0	1362	270183.320097858107	2057.5334693771
0	1368	271309.144366811978	1385.7125912793
0	1371	272030.88818038815	2037.3960445169
0	1373	272530.357361538357	2347.0372636802
0	1375	272846.05505056681	1536.9106837548
0	1379	273641.995055973542	1611.1068755854
0	1383	274549.600338516779	2019.2429769784
0	1384	274803.765788907202	1957.7107383404
0	1390	275712.755228765321	2070.7601727918
0	1391	275961.939552426355	1158.1737635192
0	1392	276043.434379482664	1493.8340409659
0	1398	277208.166619855928	1246.2270674296
0	1399	277230.771154118714	1518.0159253534
0	1405	278365.109549090288	2321.6751696076
0	1406	278590.75000095183	1382.5833810959
0	1407	278761.552459979443	1530.7813058607
0	1413	279976.669452711961	1611.5599036217
0	1414	280147.400355292503	1556.6503543407
0	1418	281083.058564923717	2321.5061049443
0	1422	282027.002502512205	1879.6021472197
0	1424	282345.513849472648	2368.8443967607
0	1427	282971.581858908772	1888.5232939851
0	1431	283621.700468100629	1276.186618628
0	1435	284479.367575887609	2452.3650733754
0	1436	284611.10906763935	1639.5272087306
0	1437	284775.827394425891	1154.1269263253
0	1442	285587.434079591204	1108.0665037036
0	1446	286423.123086104184	1812.0140184648
0	1447	286757.896128762536	1982.0687343366
0	1452	287629.866220615824	2042.4321410246
0	1455	288279.564899532147	1521.6687707696
0	1456	288486.760559398696	2063.6374732945
0	1462	289599.003976397236	1969.1377557814
0	1463	289911.456107301652	1424.695547903
0	1464	290102.173771848925	1822.6088723168
0	1471	291860.774383926779	1949.3182766251
0	1472	291909.952287375946	2310.9483109787
0	1473	292037.343524023913	1935.169752175
0	1480	293291.632097912967	1430.8577139862
0	1481	293325.762729998701	1288.4192059748
0	1482	293793.083631992359	1883.1313446164
0	1489	295187.78765369209	1862.0249236934
0	1490	295522.804487776029	1729.7208557837
0	1491	295595.685500884444	2304.0534029715
0	1497	296982.498226314807	1794.7105726227
0	1500	297522.150736441851	1926.4652355574
0	1501	297889.953290205468	2367.1488024294
0	1504	298458.879670780177	1476.3814444654
0	1509	299348.054572334528	1825.9038358927
0	1510	299602.736015338471	1712.782725133
0	1514	300413.08856089602	1954.2088901158
0	1517	300907.20684207046	1559.1522697359
0	1521	301633.253385778543	1220.1648248825
0	1522	301728.64241693171	2125.9064015932
0	1528	302993.265133816763	2086.0582917463
0	1529	303024.177680583698	1390.9242948052
0	1530	303291.801684955156	1563.1592680234
0	1536	304307.120209559826	1282.9425289761
0	1538	304695.806303294397	1404.0046183392
0	1539	304943.40698900634	1950.1418551896
0	1546	306568.207596335588	2261.0873867758
0	1547	306693.067275686211	1997.2609723918
0	1548	306783.199831657126	1839.7928426508
0	1555	308698.052783589831	2004.9855079036
0	1556	308782.810229714988	2214.6026333794
0	1557	309176.871022023276	2393.6711903661
0	1564	310659.331384208081	1876.5211544931
0	1565	310831.520978361389	2133.4681947716
0	1566	311336.903064278901	2160.0320422556
0	1573	312566.014014976127	1906.682630768
0	1574	312840.364103810882	2008.8431254495
0	1575	312898.908923473225	1562.0058591943
0	1582	314041.023040423198	1475.0090254471
0	1584	314625.880311336389	1785.5162075255
0	1585	314678.867364116029	1779.9584406428
0	1589	315459.557449305458	1418.5344088823
0	1594	316415.995494509132	1737.1281303931
0	1595	316467.470407113455	1841.5900957771
0	1597	316954.10929690118	1494.5518475957
0	1602	317972.753345780097	1505.2829386666
0	1604	318277.355724340321	1861.3602298312
0	1606	318651.342766592307	1697.2334696911
0	1611	319771.839394094445	1799.0860483143
0	1613	320322.695765923726	2045.3400415834
0	1614	320508.024335559486	1856.6815689672
0	1619	321302.36690193417	1530.5275078397
0	1622	321848.417983157578	1525.7222172339
0	1623	321952.09384029734	1444.0695047379
0	1630	323222.238688124367	1919.8717861902
0	1631	323298.839608998998	1346.7457687017
0	1634	324025.064576044697	2176.6465928871
0	1638	325037.940422398993	1815.7017342746
0	1639	325111.76377404484	1812.9241650458
0	1642	325798.486893530954	1773.4223174863
0	1645	326270.894477795833	1232.9540553968
0	1648	326853.917684638901	1742.1539105941
0	1653	327741.946349898373	1943.4594563674
0	1654	328237.949745543325	1967.0552677475
0	1659	329225.811331020697	2371.8936463818
0	1661	329703.570149978642	1961.6238000803
0	1663	329893.860446987697	1655.9107014444
0	1667	330995.116555877059	1769.3052248564
0	1671	331684.686005115528	1981.1158551369
0	1672	331869.366197101795	1975.5057501141
0	1677	333049.306224100322	2054.1896682233
0	1679	333471.034015808274	1786.3480106927
0	1680	333572.593156294921	1703.2269591931
0	1687	335197.770612733462	1625.1774564385
0	1688	335424.061433086191	1953.0274172779
0	1689	335453.357235621691	2404.0510115214
0	1695	336393.564851582074	1195.7942388486
0	1698	336936.184730613624	1512.1232975274
0	1699	337125.135003961653	1671.77776834
0	1704	338282.03621716241	1888.4713655803
0	1706	338692.770233145004	1756.5855025314
0	1708	338934.415425360233	1809.2804213986
0	1714	340088.148226495856	1806.1120093334
0	1715	340186.13355983982	1493.3633266948
0	1717	340505.402066744894	1570.9866413847
0	1723	341670.130983414152	1581.9827569183
0	1724	341770.171974739079	1584.0384148993
0	1725	341881.054127169803	1375.6520604249
0	1732	343311.204964108789	1641.0739806946
0	1733	343469.372409302772	1588.318282133
0	1734	343897.096278704723	2126.9243039656
0	1740	344713.262743782283	1243.8903344795
0	1742	344942.840955080488	1631.6359909717
0	1745	345522.141500283053	1625.0452215783
0	1749	346340.611044410641	1397.7700893302
0	1751	346696.088571706818	1982.8258279245
0	1753	347054.36314274559	1532.2216424625
0	1758	348153.182533476527	1812.5714890659
0	1760	348591.456915484772	1895.368343778
0	1763	349028.35067161361	1973.987528868
0	1767	349973.139855545045	1381.6829400603
0	1769	350100.358445383634	1947.1759119071
0	1770	350440.19699888306	1411.8463272695
0	1777	351754.098378075318	1780.9585225303
0	1778	351824.10393459725	1723.7454892136
0	1779	352039.40157420004	1599.204575317
0	1785	353044.704741099876	1220.6008065026
0	1787	353292.378916405161	1252.9773422051
0	1791	353769.038867438243	2014.9404893629
0	1792	354116.47849185395	1071.7737507541
0	1795	354798.856093129164	1506.477176724
0	1800	355810.337257850946	2041.2983904127
0	1802	356501.297127921162	2384.8186360672
0	1803	356621.613198705038	1822.7571055759
0	1809	357635.448713600666	1825.1114557497
0	1811	358340.910211578039	1839.6130836569
0	1812	358365.755130769705	1744.1419320647
0	1819	360094.824523525343	2459.3758099247
0	1820	360126.6898213886	1785.7796098106
0	1821	360153.901942726245	1788.1468119565
0	1827	361622.251368826275	1468.3494261
0	1830	362243.349887710095	2148.5253641848
0	1831	362356.476568384124	2229.7867469955
0	1835	362958.545318199342	1336.2939493731
0	1839	364023.998414492262	1667.5218461081
0	1840	364061.818245844946	1818.4683581349
0	1845	365321.898973966037	2363.3536557667
0	1846	365496.7641684227	1434.9459225778
0	1849	365886.126997740967	1862.1285832487
0	1854	366888.267090870087	1566.368116904
0	1855	366898.367814766274	1401.6036463436
0	1859	367629.749579960508	1743.6225822195
0	1863	368814.422847842829	1916.0550330766
0	1865	368882.643838785609	1994.3767479155
0	1867	369339.808760024635	1710.0591800641
0	1872	370399.191705370341	1516.5478665847
0	1873	370515.72741600688	1701.3045681641
0	1876	371279.997437121375	1940.1886770967
0	1881	372320.444510551188	1921.2528051808
0	1882	372687.784320954265	2172.0569049474
0	1885	373183.342841221049	1903.3454040997
0	1890	374205.641697160932	1517.8573762067
0	1891	374361.161479912716	2040.7169693615
0	1896	375495.635129883915	2312.2922886629
0	1899	376216.695406101677	2011.0537089407
0	1900	376581.006153300423	2219.8446733877
0	1903	377045.821438729793	1550.1863088459
0	1908	378253.008565306697	2036.313159205
0	1909	378439.99100010844	1858.984846808
0	1913	379152.190035022826	2106.368596293
0	1918	380061.546272691372	1808.5377073847
0	1919	380409.420052869265	1969.4290527608
0	1921	380753.179136104913	1600.9891010821
0	1926	381526.662718551267	1465.1164458599
0	1927	381709.567163139602	1300.1471102703
0	1931	382400.382610224219	1647.2034741193
0	1936	383709.170192945769	1999.6030298062
0	1937	383822.78791260909	2296.1251940578
0	1938	383996.925965230943	1596.5433550067
0	1945	385290.862337965538	1581.6921450198
0	1947	385705.067933443968	1882.2800208349
0	1948	385990.103052416848	1993.1770871859
0	1953	386822.046075761353	1116.9781423174
0	1954	386942.246000887846	1651.3836629223
0	1956	387328.311158996107	1338.2081065793
0	1962	388310.764286248033	1368.5182853602
0	1963	388318.525282759254	1496.4792069979
0	1968	389172.109520668196	1843.7983616721
0	1971	389654.20703189451	1335.6817491353
0	1973	390110.201603919287	1799.4373176713
0	1975	390550.459604524108	1378.3500838559
0	1980	391739.360500406509	2085.153468512
0	1981	391941.397993220036	1831.1963893007
0	1983	392435.473044449496	1885.0134399254
0	1990	394150.887098209965	1715.4140537605
0	1991	394151.705832313781	2412.3453319073
0	1992	394167.747876187807	2226.3498829678
0	1999	395805.974341370198	1655.0872431602
0	2001	396228.311963332852	2076.6061310191
0	2002	396361.00821197035	2193.2603357825
0	2007	397635.987120168316	1830.0127787981
0	2010	398318.769025756081	2090.4570624232
0	2011	398341.532918158939	1980.5247061886
0	2015	399058.77408301461	1422.7869628463
0	2019	399780.878251651322	1439.3453334924
0	2021	400150.739636784454	1831.9706110284
0	2024	400872.370403213459	1813.5963201988
0	2028	401730.675765685772	1579.9361289013
0	2029	401848.034351225963	2067.1560995746
0	2033	402653.271485958281	1780.9010827448
0	2036	403347.559793433194	1499.5254422072
0	2039	403998.670702194829	2267.9949365091
0	2043	404681.702767917919	2028.4312819596
0	2044	404985.507289040852	1637.9474956077
0	2049	405944.83523354869	1946.1645313539
0	2050	406313.163365609977	1631.4605976921
0	2055	407188.666884228606	2203.1595951878
0	2057	407698.114953981747	1753.2797204331
0	2058	407772.802147083018	1459.638781473
0	2064	408922.749738162403	1734.0828539338
0	2065	408993.177757691627	1295.0628037099
0	2070	410432.420661533284	2659.6185144503
0	2072	410684.834058908765	1762.0843207464
0	2073	411042.416005628219	2049.2382479366
0	2080	412136.124287266318	1703.703625733
0	2081	412397.646933887189	1355.230928259
0	2084	412839.387763431316	2154.5537045226
0	2088	413699.275318533216	1563.1510312669
0	2089	413708.203468937462	1310.5565350503
0	2095	415104.872501827797	2265.4847383965
0	2096	415301.28233302388	1602.0070144907
0	2097	415580.839468818193	1872.6359998807
0	2103	416799.160164780948	1497.8778317571
0	2105	417131.594423996305	2026.7219221685
0	2107	417794.643154833501	2213.8036860153
0	2112	418830.503495922346	2031.3433311414
0	2114	419017.915732227287	1886.321308231
0	2115	419278.401542874088	1483.7583880406
0	2122	420443.280460964922	1612.7769650426
0	2123	420709.70658618029	1431.3050433062
0	2124	420805.314706033117	1787.3989738058
0	2129	421847.485846839867	1042.1711408067
0	2133	422445.181283075396	2001.9008221105
0	2134	422639.13972205486	1929.4331358746
0	2139	423496.477624308339	1648.9917774685
0	2140	423855.214008316432	1410.032725241
0	2143	424617.12242751386	1977.982705459
0	2147	425294.080899003915	1797.6032746956
0	2151	425988.746779086102	2133.5327707697
0	2152	426154.555214289614	1537.4327867758
0	2156	426792.426593508593	1498.3456945047
0	2160	427844.602967239949	1855.8561881538
0	2162	428129.450361337552	1974.8951470479
0	2166	428886.500632530101	2094.0740390215
0	2168	429180.030982056665	1335.4280148167
0	2170	429446.506830537731	1317.0564692002
0	2176	430921.998055977769	2035.4974234477
0	2177	430980.210013920481	1533.7031833828
0	2178	431233.532297657836	2053.5013156012
0	2185	432605.395846394862	1625.1858324744
0	2186	432692.225076723865	1770.2270207461
0	2187	432917.005561804433	1683.4732641466
0	2194	434571.902775485109	1966.5069290902
0	2195	434679.534869687653	1987.3097929638
0	2196	434689.080606121605	1772.0750443172
0	2202	436250.768802640999	1678.8660271559
0	2204	436653.825891623309	1964.7452855017
0	2205	436834.985490236452	2155.4506205488
0	2212	438070.153521280757	1235.1680310443
0	2213	438165.220165299287	1511.394273676
0	2214	438544.882448902393	2294.1136462614
0	2221	440095.69082055243	2025.5372992717
0	2222	440315.948297269678	2150.7281319704
0	2223	440379.634575638959	1834.7521267366
0	2229	441321.120000723771	1225.4291801713
0	2230	441522.478826064652	1206.530528795
0	2234	442379.57034590658	1999.9357702676
0	2238	443096.240630093998	1573.7618040293
0	2240	443843.240559333957	2522.1205586102
0	2243	444699.001399800221	2319.4310538936
0	2246	445287.136436440087	2190.8958063461
0	2249	446081.99711032214	2238.7565509882
0	2251	446150.808880571316	1451.8074807711
0	2257	447378.302653413303	2091.1662169732
0	2259	448056.954411417268	1974.9573010951
0	2260	448089.123375294771	1938.3144947235
0	2264	448885.847766185217	1507.5451127719
0	2268	449726.226112106856	1637.1027368121
0	2269	449799.516256665834	1742.5618452486
0	2273	450489.538253378161	1603.6904871929
0	2277	451373.255015490617	1647.0289033838
0	2278	451795.542065799259	1996.0258091334
0	2283	452738.894167961591	2249.3559145834
0	2286	453356.687174364947	1561.1451085657
0	2287	453522.582598356571	2149.327582866
0	2291	454538.149716099763	1799.2555481382
0	2295	455472.901300108101	1950.3187017515
0	2296	455611.401132959895	2254.7139585949
0	2300	456629.096738481934	2090.9470223822
0	2304	457527.251710044243	1915.8505770843
0	2305	457578.292367421131	2105.391067313
0	2309	458353.448813594917	1724.352075113
0	2313	459327.927459636726	1800.6757495925
0	2314	459428.884337050881	1850.5919696297
0	2319	460432.364539057056	2078.9157254621
0	2321	460691.643525660061	1363.7160660233
0	2323	461010.85448479284	1581.970147742
0	2327	461782.989232102448	1350.6246930454
0	2331	462860.906806960744	1850.0523221679
0	2332	462912.812555255392	2221.1690295953
0	2336	463951.86262470674	2168.8733926043
0	2339	464370.254532946298	1457.4419776909
0	2340	464421.015204442707	1560.108397482
0	2347	465922.801958816165	1970.9393341094
0	2348	466373.721321998207	1952.7061175555
0	2349	466378.773703007052	2008.5191700608
0	2354	467488.169817952478	1565.3678591363
0	2358	468488.09353723195	2114.3722152337
0	2359	468597.889470867836	2219.1157678608
0	2362	469325.061611831228	1836.8917938787
0	2367	470015.378537680997	1527.285000449
0	2370	470563.862970750802	1965.973499883
0	2371	470643.774649780284	1318.7130379491
0	2375	471448.758565820797	1433.3800281398
0	2378	472220.263804681639	1576.4891549014
0	2381	472732.312420383119	2168.4494496323
0	2385	473604.559167567684	2155.8006017469
0	2387	474281.660149153362	2061.3963444717
0	2391	474792.288800049597	2059.9763796665
0	2393	475369.256783416539	1764.6976158489
0	2397	476245.273451507132	1963.6133023538
0	2398	476679.342817515159	1887.0540174656
0	2403	477542.433099914387	2173.1763164978
0	2404	477807.847967650783	1562.5745161437
0	2410	478877.468045521572	1335.0349456072
0	2411	478917.122288234557	2237.7794707194
0	2412	479358.353337971535	1550.5053703208
0	2419	480763.073919899807	1885.6058743782
0	2420	481059.206301765541	2142.084013531
0	2422	481356.115347845522	1997.762009874
0	2427	482374.992762878583	1611.9188429788
0	2429	482980.78087731267	1921.5745755471
0	2430	483144.595914054705	1788.4805662092
0	2437	484753.396031074251	1772.6151537616
0	2438	484849.188139010267	2474.1953761317
0	2439	484907.633530022619	1763.0376159679
0	2446	486417.467343108771	1509.8338130862
0	2447	486476.407257048459	1627.2191180382
0	2448	486530.277646333004	1776.8816152588
0	2455	488085.367899248422	1608.9606422
0	2456	488216.858313884629	1799.3909707759
0	2457	488485.716620693009	1955.43897436
0	2464	489944.681341247678	1859.3134419993
0	2465	490041.318131703926	1824.4598178193
0	2466	490476.82529976594	1991.1086790729
0	2473	492397.297686617866	2452.6163453702
0	2474	492498.881935654251	2457.5638039503
0	2476	493041.028346540432	2564.2030467745
0	2481	494076.905408408536	1578.0234727543
0	2483	494559.42987101157	2162.1321843937
0	2486	495133.395136892822	2092.3667903524
0	2491	496465.556721109942	1906.1268500984
0	2492	496674.058375088541	2597.15296668
0	2495	497349.053594190654	2215.6584572978
0	2499	498757.734268019022	2292.1775469091
0	2501	498906.502273818521	2232.44389873
0	2502	499213.473023660508	1864.4194294699
0	2508	500024.175029899969	1117.6727560814
0	2511	500442.872196994769	1685.1379289757
0	2512	500644.608610868481	1431.135587208
0	2517	501839.176649646877	1815.0016197469
0	2519	502233.105773851303	1588.4971629828
0	2521	502464.410029118928	2021.5378321242
0	2525	503558.44902028334	1719.2723706365
0	2529	504259.542513079969	2026.4367392287
0	2531	504883.173114247668	2418.7630851287
0	2533	504910.239765420599	1351.7907451373
0	2538	506033.776470785988	1774.233957706
0	2541	506390.974585991401	1507.8014717437
0	2543	506979.525733133822	2069.2859677132
0	2546	507486.172661371557	1452.3961905856
0	2550	508403.031325154051	1423.5055920202
0	2551	508532.063378160867	2141.0887921695
0	2555	509521.334544103621	2035.1618827321
0	2559	510248.262667749125	1716.1992895883
0	2560	510491.644805017904	2088.6134798639
0	2564	510992.220407724409	1470.8858636208
0	2568	511785.697241127539	1537.4345733784
0	2571	512429.177048150496	1937.5322431326
0	2574	512983.389032492443	1991.168624768
0	2576	513594.299104856376	1808.6018637288
0	2581	514385.605210298719	1956.4281621482
0	2582	515015.255434485201	1420.9563296288
0	2583	515156.194126373186	2172.8050938807
0	2590	516262.311819568306	1106.1176931951
0	2591	516701.814743550541	2316.2095332518
0	2592	516788.97993871947	1773.7245042343
0	2599	517962.107954872821	1173.1280161534
0	2600	518387.888202583447	2125.5763830151
0	2602	518782.5259265956	2080.7111830451
0	2608	520021.697394875859	2059.589440003
0	2610	520372.080549784035	1984.1923472006
0	2611	520753.376178117515	1970.8502515219
0	2617	522078.27626047659	1706.1957106926
0	2618	522130.322499387015	2108.6251045112
0	2620	522906.790330074773	2153.4141519573
0	2626	523910.829906212215	1780.5074068252
0	2627	524141.870001470701	2063.5937409941
0	2629	524548.202799120964	1641.4124690462
0	2634	525320.364923402698	1178.494921932
0	2635	525496.328728599523	1585.4988223873
0	2640	526604.212799342396	2056.0100002214
0	2641	526638.522615423476	1142.193886824
0	2643	527235.915865190358	1915.5509417877
0	2649	527979.980844352441	1375.76804501
0	2652	528701.633520657248	2063.1109052338
0	2653	528714.863527100564	1478.9476619102
0	2656	529440.27782916096	1460.2969848085
0	2662	530528.383634286053	1826.7501136288
0	2663	530899.0563057829	2184.1927786823
0	2664	531126.218453887896	1685.9406247269
0	2670	532253.494400158576	1725.1107658725
0	2672	532408.940376481072	1509.8840706982
0	2673	532870.270891394512	1744.0524375066
0	2680	534473.020048532681	1602.7491571382
0	2681	534507.419829815678	2253.9254296571
0	2682	534611.217013606832	2202.2766371258
0	2689	536613.357379613496	2105.9375497978
0	2690	536765.649103838997	2292.6290553063
0	2691	536831.47903396751	2220.2620203607
0	2698	537870.513022318512	1039.033988351
0	2699	538326.453766180249	1560.8046623413
0	2701	538634.981568390555	2021.6241887771
0	2704	539109.836905589356	1239.3238832708
0	2709	539774.204037431674	1447.7502712514
0	2711	540133.404683182067	1498.4231147915
0	2713	540663.073104573443	1553.2361989841
0	2717	541458.615887397947	1684.4118499663
0	2719	541782.236823113686	1648.8321399316
0	2724	542860.57209195572	2197.4989873823
0	2725	543015.140056936116	1556.5241695382
0	2729	543816.778062237478	2034.5412391238
0	2734	544861.103095533355	2000.5310035776
0	2735	544891.703496594028	1876.5634396579
0	2736	545283.147869585133	1466.3698073477
0	2743	546550.375291239499	1689.2721957061
0	2744	546618.275932688312	1726.5724360943
0	2745	546814.377539092726	1531.2296695076
0	2750	547897.953310422645	1279.6773777343
0	2753	548427.637253003223	1877.2619617637
0	2754	548478.169140452571	1663.7916013598
0	2760	549643.26046267529	1745.3071522526
0	2762	550341.714198701112	1914.0769456979
0	2764	550522.564623272099	2044.3954828195
0	2768	551140.800706855999	1497.5402441807
0	2772	552127.970935357763	1786.2567366567
0	2773	552243.236631341332	1720.6720080692
0	2775	552707.73438387555	1566.9336770196
0	2782	554182.244040817051	2054.2731054593
0	2783	554290.402658376896	2047.1660270356
0	2785	554710.383380809846	2002.6489969343
0	2791	556060.110471490818	1349.727090681
0	2792	556194.521896261751	2012.2778554447
0	2793	556346.276245638781	2055.8735872619
0	2800	557578.615815332189	1384.0939190704
0	2801	557889.60186839109	1543.3256227523
0	2803	557939.797160262289	1879.6866887715
0	2809	559515.66648222509	1937.0506668929
0	2811	559981.101205525972	2091.4993371349
0	2812	560068.42513955203	2128.6279792897
0	2816	560991.329357586832	1475.6628753617
0	2820	561768.880228092946	1787.779022567
0	2822	562023.113087425055	1954.687947873
0	2823	562228.989431401746	1237.6600738149
0	2830	563766.427016537683	1743.3139291126
0	2831	563961.040013982015	1732.0505825803
0	2832	563972.747293347545	2203.8670652546
0	2838	565010.22376217884	1243.7967456412
0	2840	565517.331054993006	1556.291041011
0	2842	565751.686219498567	1778.938926151
0	2847	566833.597220806451	1823.3734586276
0	2850	567208.239101199486	1456.5528817009
0	2851	567470.873176865312	1953.5421218723
0	2856	568686.668359441736	1478.4292582422
0	2857	568774.087195051881	1940.4899742454
0	2862	569753.29468622807	2282.4215093628
0	2864	570080.331124831038	1306.2439297792
0	2865	570491.675395751425	1805.0070363097
0	2872	571969.31913681333	1888.9880119823
0	2873	572360.372127452918	1868.6967317015
0	2874	572364.807495754245	2611.5128095262
0	2880	573481.081323931041	1511.7621871177
0	2882	573779.104088014025	1414.2965922598
0	2883	573835.352181550168	1474.9800540972
0	2889	575151.779392361688	1670.6980684306
0	2891	575348.084068391506	1568.9799803775
0	2893	576110.037733800762	2274.6855522506
0	2898	577186.602416122367	1838.5183477309
0	2899	577207.836572499993	2056.0571801383
0	2903	578167.766701290437	2057.7289674897
0	2905	578763.657874893444	1555.8213023935
0	2909	579218.196576274966	2031.5941601526
0	2914	580237.850335333549	2070.0836340431
0	2915	580332.94162480164	1114.7450485267
0	2916	580404.131703078793	1640.4738281853
0	2922	581728.999494435312	1324.8677913565
0	2925	582366.590467980166	2033.6488431785
0	2926	582489.297616900929	2251.4472815674
0	2928	583125.721634924458	1396.7221404891
0	2934	583919.568785140344	1430.2711682394
0	2937	584542.414145171677	2175.8236771915
0	2940	585127.5582463481	2001.8366114236
0	2942	585485.732927592524	1566.1641424522
0	2944	585924.987687030842	1382.5735418592
0	2948	586630.23518119012	1502.676934842
0	2950	586794.936637859845	1309.2037102673
0	2955	588118.249720707571	2193.2620336767
0	2957	588604.102463834034	1973.8672826439
0	2960	589170.65934967255	2375.7227118127
0	2965	590089.437394822063	1485.334930988
0	2966	590142.508502583986	2024.2587818764
0	2967	590497.571468912119	1326.9121192396
0	2973	591715.437890589272	1572.9293880053
0	2976	592229.041507327983	1731.4700384159
0	2977	592377.027035644325	2287.5896408223
0	2982	593655.914160283317	1940.476269694
0	2984	593953.380488092134	1724.3389807642
0	2986	594479.355942411396	2102.3289067671
0	2992	595886.155825993081	2230.2416657098
0	2993	595897.402696916888	1944.0222088248
0	2995	596378.698113514158	1899.3421711028
0	3000	597394.259630050564	1496.8569331337
0	3002	597634.742277022487	1748.5864510294
0	3004	597870.24263036442	1491.5445168503
0	3009	598994.610543502548	1600.350913452
0	3011	599136.962090525823	1266.7194601614
0	3012	599550.656022504009	1915.9137454815
0	3018	600668.559497175785	1531.59740665
0	3020	600959.847846580723	1965.2373030782
0	3023	601646.794396592341	2096.1383740883
0	3027	602514.192960318224	1845.6334631424
0	3028	602612.872674828449	1653.0248282477
0	3033	603402.476348541713	1755.6819519494
0	3036	603925.358577724593	1411.1656174064
0	3037	604163.648902718031	1550.7762278896
1	1315	260520.576219074446	436
1	1316	260721.136869024498	437
1	1317	260766.401948081351	438
1	1324	262108.904406800888	441
1	1325	262216.700020199659	439
1	1326	262652.100336318848	440
1	1333	264134.337485907621	442
1	1334	264236.994444904866	443
1	1335	264387.653190270079	444
1	1342	266102.40030311981	446
1	1343	266326.478430256261	447
1	1344	266582.266624085627	445
1	1350	267780.548523645861	449
1	1352	268125.786628481022	450
1	1353	268134.140905598195	448
1	1360	269923.43177553268	453
1	1361	269993.492135871214	451
1	1362	270183.320097858107	452
1	1368	271309.144366811978	454
1	1371	272030.88818038815	455
1	1373	272530.357361538357	456
1	1375	272846.05505056681	457
1	1379	273641.995055973542	458
1	1383	274549.600338516779	459
1	1384	274803.765788907202	460
1	1390	275712.755228765321	461
1	1391	275961.939552426355	463
1	1392	276043.434379482664	462
1	1398	277208.166619855928	465
1	1399	277230.771154118714	464
1	1405	278365.109549090288	466
1	1406	278590.75000095183	467
1	1407	278761.552459979443	468
1	1413	279976.669452711961	469
1	1414	280147.400355292503	470
1	1418	281083.058564923717	471
1	1422	282027.002502512205	473
1	1424	282345.513849472648	472
1	1427	282971.581858908772	474
1	1431	283621.700468100629	476
1	1435	284479.367575887609	475
1	1436	284611.10906763935	477
1	1437	284775.827394425891	478
1	1442	285587.434079591204	479
1	1446	286423.123086104184	480
1	1447	286757.896128762536	481
1	1452	287629.866220615824	482
1	1455	288279.564899532147	484
1	1456	288486.760559398696	483
1	1462	289599.003976397236	485
1	1463	289911.456107301652	487
1	1464	290102.173771848925	486
1	1471	291860.774383926779	489
1	1472	291909.952287375946	488
1	1473	292037.343524023913	490
1	1480	293291.632097912967	491
1	1481	293325.762729998701	493
1	1482	293793.083631992359	492
1	1489	295187.78765369209	495
1	1490	295522.804487776029	496
1	1491	295595.685500884444	494
1	1497	296982.498226314807	497
1	1500	297522.150736441851	499
1	1501	297889.953290205468	498
1	1504	298458.879670780177	500
1	1509	299348.054572334528	501
1	1510	299602.736015338471	502
1	1514	300413.08856089602	503
1	1517	300907.20684207046	504
1	1521	301633.253385778543	506
1	1522	301728.64241693171	505
1	1528	302993.265133816763	507
1	1529	303024.177680583698	508
1	1530	303291.801684955156	509
1	1536	304307.120209559826	511
1	1538	304695.806303294397	512
1	1539	304943.40698900634	510
1	1546	306568.207596335588	513
1	1547	306693.067275686211	514
1	1548	306783.199831657126	515
1	1555	308698.052783589831	517
1	1556	308782.810229714988	516
1	1557	309176.871022023276	518
1	1564	310659.331384208081	520
1	1565	310831.520978361389	519
1	1566	311336.903064278901	521
1	1573	312566.014014976127	522
1	1574	312840.364103810882	523
1	1575	312898.908923473225	524
1	1582	314041.023040423198	525
1	1584	314625.880311336389	526
1	1585	314678.867364116029	527
1	1589	315459.557449305458	528
1	1594	316415.995494509132	530
1	1595	316467.470407113455	529
1	1597	316954.10929690118	531
1	1602	317972.753345780097	533
1	1604	318277.355724340321	532
1	1606	318651.342766592307	534
1	1611	319771.839394094445	535
1	1613	320322.695765923726	536
1	1614	320508.024335559486	537
1	1619	321302.36690193417	538
1	1622	321848.417983157578	539
1	1623	321952.09384029734	540
1	1630	323222.238688124367	541
1	1631	323298.839608998998	543
1	1634	324025.064576044697	542
1	1638	325037.940422398993	544
1	1639	325111.76377404484	545
1	1642	325798.486893530954	546
1	1645	326270.894477795833	547
1	1648	326853.917684638901	548
1	1653	327741.946349898373	549
1	1654	328237.949745543325	550
1	1659	329225.811331020697	551
1	1661	329703.570149978642	552
1	1663	329893.860446987697	553
1	1667	330995.116555877059	554
1	1671	331684.686005115528	555
1	1672	331869.366197101795	556
1	1677	333049.306224100322	557
1	1679	333471.034015808274	558
1	1680	333572.593156294921	559
1	1687	335197.770612733462	562
1	1688	335424.061433086191	561
1	1689	335453.357235621691	560
1	1695	336393.564851582074	563
1	1698	336936.184730613624	564
1	1699	337125.135003961653	565
1	1704	338282.03621716241	566
1	1706	338692.770233145004	567
1	1708	338934.415425360233	568
1	1714	340088.148226495856	569
1	1715	340186.13355983982	570
1	1717	340505.402066744894	571
1	1723	341670.130983414152	572
1	1724	341770.171974739079	573
1	1725	341881.054127169803	574
1	1732	343311.204964108789	575
1	1733	343469.372409302772	577
1	1734	343897.096278704723	576
1	1740	344713.262743782283	579
1	1742	344942.840955080488	578
1	1745	345522.141500283053	580
1	1749	346340.611044410641	582
1	1751	346696.088571706818	581
1	1753	347054.36314274559	583
1	1758	348153.182533476527	584
1	1760	348591.456915484772	585
1	1763	349028.35067161361	586
1	1767	349973.139855545045	588
1	1769	350100.358445383634	587
1	1770	350440.19699888306	589
1	1777	351754.098378075318	590
1	1778	351824.10393459725	591
1	1779	352039.40157420004	592
1	1785	353044.704741099876	594
1	1787	353292.378916405161	595
1	1791	353769.038867438243	593
1	1792	354116.47849185395	596
1	1795	354798.856093129164	597
1	1800	355810.337257850946	598
1	1802	356501.297127921162	599
1	1803	356621.613198705038	600
1	1809	357635.448713600666	601
1	1811	358340.910211578039	602
1	1812	358365.755130769705	603
1	1819	360094.824523525343	604
1	1820	360126.6898213886	605
1	1821	360153.901942726245	606
1	1827	361622.251368826275	609
1	1830	362243.349887710095	607
1	1831	362356.476568384124	608
1	1835	362958.545318199342	610
1	1839	364023.998414492262	612
1	1840	364061.818245844946	611
1	1845	365321.898973966037	613
1	1846	365496.7641684227	615
1	1849	365886.126997740967	614
1	1854	366888.267090870087	616
1	1855	366898.367814766274	617
1	1859	367629.749579960508	618
1	1863	368814.422847842829	620
1	1865	368882.643838785609	619
1	1867	369339.808760024635	621
1	1872	370399.191705370341	623
1	1873	370515.72741600688	622
1	1876	371279.997437121375	624
1	1881	372320.444510551188	625
1	1882	372687.784320954265	626
1	1885	373183.342841221049	627
1	1890	374205.641697160932	629
1	1891	374361.161479912716	628
1	1896	375495.635129883915	630
1	1899	376216.695406101677	631
1	1900	376581.006153300423	632
1	1903	377045.821438729793	633
1	1908	378253.008565306697	634
1	1909	378439.99100010844	635
1	1913	379152.190035022826	636
1	1918	380061.546272691372	637
1	1919	380409.420052869265	638
1	1921	380753.179136104913	639
1	1926	381526.662718551267	640
1	1927	381709.567163139602	641
1	1931	382400.382610224219	642
1	1936	383709.170192945769	644
1	1937	383822.78791260909	643
1	1938	383996.925965230943	645
1	1945	385290.862337965538	646
1	1947	385705.067933443968	647
1	1948	385990.103052416848	648
1	1953	386822.046075761353	650
1	1954	386942.246000887846	649
1	1956	387328.311158996107	651
1	1962	388310.764286248033	653
1	1963	388318.525282759254	652
1	1968	389172.109520668196	654
1	1971	389654.20703189451	656
1	1973	390110.201603919287	655
1	1975	390550.459604524108	657
1	1980	391739.360500406509	658
1	1981	391941.397993220036	659
1	1983	392435.473044449496	660
1	1990	394150.887098209965	663
1	1991	394151.705832313781	661
1	1992	394167.747876187807	662
1	1999	395805.974341370198	664
1	2001	396228.311963332852	665
1	2002	396361.00821197035	666
1	2007	397635.987120168316	667
1	2010	398318.769025756081	668
1	2011	398341.532918158939	669
1	2015	399058.77408301461	670
1	2019	399780.878251651322	672
1	2021	400150.739636784454	671
1	2024	400872.370403213459	673
1	2028	401730.675765685772	675
1	2029	401848.034351225963	674
1	2033	402653.271485958281	676
1	2036	403347.559793433194	678
1	2039	403998.670702194829	677
1	2043	404681.702767917919	679
1	2044	404985.507289040852	680
1	2049	405944.83523354869	681
1	2050	406313.163365609977	682
1	2055	407188.666884228606	683
1	2057	407698.114953981747	684
1	2058	407772.802147083018	685
1	2064	408922.749738162403	686
1	2065	408993.177757691627	687
1	2070	410432.420661533284	688
1	2072	410684.834058908765	689
1	2073	411042.416005628219	690
1	2080	412136.124287266318	691
1	2081	412397.646933887189	693
1	2084	412839.387763431316	692
1	2088	413699.275318533216	694
1	2089	413708.203468937462	695
1	2095	415104.872501827797	696
1	2096	415301.28233302388	697
1	2097	415580.839468818193	698
1	2103	416799.160164780948	700
1	2105	417131.594423996305	699
1	2107	417794.643154833501	701
1	2112	418830.503495922346	702
1	2114	419017.915732227287	703
1	2115	419278.401542874088	704
1	2122	420443.280460964922	705
1	2123	420709.70658618029	707
1	2124	420805.314706033117	706
1	2129	421847.485846839867	710
1	2133	422445.181283075396	708
1	2134	422639.13972205486	709
1	2139	423496.477624308339	711
1	2140	423855.214008316432	712
1	2143	424617.12242751386	713
1	2147	425294.080899003915	714
1	2151	425988.746779086102	715
1	2152	426154.555214289614	716
1	2156	426792.426593508593	717
1	2160	427844.602967239949	718
1	2162	428129.450361337552	719
1	2166	428886.500632530101	720
1	2168	429180.030982056665	721
1	2170	429446.506830537731	722
1	2176	430921.998055977769	723
1	2177	430980.210013920481	725
1	2178	431233.532297657836	724
1	2185	432605.395846394862	727
1	2186	432692.225076723865	726
1	2187	432917.005561804433	728
1	2194	434571.902775485109	729
1	2195	434679.534869687653	730
1	2196	434689.080606121605	731
1	2202	436250.768802640999	732
1	2204	436653.825891623309	734
1	2205	436834.985490236452	733
1	2212	438070.153521280757	737
1	2213	438165.220165299287	736
1	2214	438544.882448902393	735
1	2221	440095.69082055243	738
1	2222	440315.948297269678	739
1	2223	440379.634575638959	740
1	2229	441321.120000723771	741
1	2230	441522.478826064652	742
1	2234	442379.57034590658	743
1	2238	443096.240630093998	745
1	2240	443843.240559333957	744
1	2243	444699.001399800221	746
1	2246	445287.136436440087	747
1	2249	446081.99711032214	748
1	2251	446150.808880571316	749
1	2257	447378.302653413303	750
1	2259	448056.954411417268	751
1	2260	448089.123375294771	752
1	2264	448885.847766185217	753
1	2268	449726.226112106856	755
1	2269	449799.516256665834	754
1	2273	450489.538253378161	756
1	2277	451373.255015490617	757
1	2278	451795.542065799259	758
1	2283	452738.894167961591	759
1	2286	453356.687174364947	761
1	2287	453522.582598356571	760
1	2291	454538.149716099763	762
1	2295	455472.901300108101	764
1	2296	455611.401132959895	763
1	2300	456629.096738481934	765
1	2304	457527.251710044243	767
1	2305	457578.292367421131	766
1	2309	458353.448813594917	768
1	2313	459327.927459636726	769
1	2314	459428.884337050881	770
1	2319	460432.364539057056	771
1	2321	460691.643525660061	772
1	2323	461010.85448479284	773
1	2327	461782.989232102448	774
1	2331	462860.906806960744	776
1	2332	462912.812555255392	775
1	2336	463951.86262470674	777
1	2339	464370.254532946298	779
1	2340	464421.015204442707	778
1	2347	465922.801958816165	780
1	2348	466373.721321998207	782
1	2349	466378.773703007052	781
1	2354	467488.169817952478	783
1	2358	468488.09353723195	784
1	2359	468597.889470867836	785
1	2362	469325.061611831228	786
1	2367	470015.378537680997	787
1	2370	470563.862970750802	788
1	2371	470643.774649780284	789
1	2375	471448.758565820797	790
1	2378	472220.263804681639	792
1	2381	472732.312420383119	791
1	2385	473604.559167567684	793
1	2387	474281.660149153362	794
1	2391	474792.288800049597	795
1	2393	475369.256783416539	796
1	2397	476245.273451507132	797
1	2398	476679.342817515159	798
1	2403	477542.433099914387	799
1	2404	477807.847967650783	800
1	2410	478877.468045521572	802
1	2411	478917.122288234557	801
1	2412	479358.353337971535	803
1	2419	480763.073919899807	804
1	2420	481059.206301765541	805
1	2422	481356.115347845522	806
1	2427	482374.992762878583	807
1	2429	482980.78087731267	808
1	2430	483144.595914054705	809
1	2437	484753.396031074251	811
1	2438	484849.188139010267	810
1	2439	484907.633530022619	812
1	2446	486417.467343108771	815
1	2447	486476.407257048459	814
1	2448	486530.277646333004	813
1	2455	488085.367899248422	817
1	2456	488216.858313884629	816
1	2457	488485.716620693009	818
1	2464	489944.681341247678	819
1	2465	490041.318131703926	820
1	2466	490476.82529976594	821
1	2473	492397.297686617866	822
1	2474	492498.881935654251	823
1	2476	493041.028346540432	824
1	2481	494076.905408408536	826
1	2483	494559.42987101157	825
1	2486	495133.395136892822	827
1	2491	496465.556721109942	829
1	2492	496674.058375088541	828
1	2495	497349.053594190654	830
1	2499	498757.734268019022	831
1	2501	498906.502273818521	832
1	2502	499213.473023660508	833
1	2508	500024.175029899969	835
1	2511	500442.872196994769	834
1	2512	500644.608610868481	836
1	2517	501839.176649646877	837
1	2519	502233.105773851303	839
1	2521	502464.410029118928	838
1	2525	503558.44902028334	840
1	2529	504259.542513079969	841
1	2531	504883.173114247668	842
1	2533	504910.239765420599	843
1	2538	506033.776470785988	844
1	2541	506390.974585991401	845
1	2543	506979.525733133822	846
1	2546	507486.172661371557	847
1	2550	508403.031325154051	849
1	2551	508532.063378160867	848
1	2555	509521.334544103621	850
1	2559	510248.262667749125	852
1	2560	510491.644805017904	851
1	2564	510992.220407724409	853
1	2568	511785.697241127539	854
1	2571	512429.177048150496	855
1	2574	512983.389032492443	856
1	2576	513594.299104856376	857
1	2581	514385.605210298719	858
1	2582	515015.255434485201	860
1	2583	515156.194126373186	859
1	2590	516262.311819568306	863
1	2591	516701.814743550541	861
1	2592	516788.97993871947	862
1	2599	517962.107954872821	866
1	2600	518387.888202583447	864
1	2602	518782.5259265956	865
1	2608	520021.697394875859	867
1	2610	520372.080549784035	868
1	2611	520753.376178117515	869
1	2617	522078.27626047659	871
1	2618	522130.322499387015	870
1	2620	522906.790330074773	872
1	2626	523910.829906212215	874
1	2627	524141.870001470701	873
1	2629	524548.202799120964	875
1	2634	525320.364923402698	877
1	2635	525496.328728599523	876
1	2640	526604.212799342396	878
1	2641	526638.522615423476	880
1	2643	527235.915865190358	879
1	2649	527979.980844352441	881
1	2652	528701.633520657248	882
1	2653	528714.863527100564	883
1	2656	529440.27782916096	884
1	2662	530528.383634286053	885
1	2663	530899.0563057829	886
1	2664	531126.218453887896	887
1	2670	532253.494400158576	888
1	2672	532408.940376481072	889
1	2673	532870.270891394512	890
1	2680	534473.020048532681	893
1	2681	534507.419829815678	891
1	2682	534611.217013606832	892
1	2689	536613.357379613496	895
1	2690	536765.649103838997	894
1	2691	536831.47903396751	896
1	2698	537870.513022318512	899
1	2699	538326.453766180249	898
1	2701	538634.981568390555	897
1	2704	539109.836905589356	900
1	2709	539774.204037431674	901
1	2711	540133.404683182067	902
1	2713	540663.073104573443	903
1	2717	541458.615887397947	904
1	2719	541782.236823113686	905
1	2724	542860.57209195572	906
1	2725	543015.140056936116	907
1	2729	543816.778062237478	908
1	2734	544861.103095533355	909
1	2735	544891.703496594028	910
1	2736	545283.147869585133	911
1	2743	546550.375291239499	912
1	2744	546618.275932688312	913
1	2745	546814.377539092726	914
1	2750	547897.953310422645	916
1	2753	548427.637253003223	915
1	2754	548478.169140452571	917
1	2760	549643.26046267529	918
1	2762	550341.714198701112	919
1	2764	550522.564623272099	920
1	2768	551140.800706855999	921
1	2772	552127.970935357763	922
1	2773	552243.236631341332	923
1	2775	552707.73438387555	924
1	2782	554182.244040817051	925
1	2783	554290.402658376896	926
1	2785	554710.383380809846	927
1	2791	556060.110471490818	930
1	2792	556194.521896261751	928
1	2793	556346.276245638781	929
1	2800	557578.615815332189	932
1	2801	557889.60186839109	933
1	2803	557939.797160262289	931
1	2809	559515.66648222509	934
1	2811	559981.101205525972	935
1	2812	560068.42513955203	936
1	2816	560991.329357586832	937
1	2820	561768.880228092946	938
1	2822	562023.113087425055	939
1	2823	562228.989431401746	940
1	2830	563766.427016537683	942
1	2831	563961.040013982015	943
1	2832	563972.747293347545	941
1	2838	565010.22376217884	944
1	2840	565517.331054993006	945
1	2842	565751.686219498567	946
1	2847	566833.597220806451	947
1	2850	567208.239101199486	949
1	2851	567470.873176865312	948
1	2856	568686.668359441736	951
1	2857	568774.087195051881	950
1	2862	569753.29468622807	952
1	2864	570080.331124831038	954
1	2865	570491.675395751425	953
1	2872	571969.31913681333	956
1	2873	572360.372127452918	957
1	2874	572364.807495754245	955
1	2880	573481.081323931041	958
1	2882	573779.104088014025	960
1	2883	573835.352181550168	959
1	2889	575151.779392361688	961
1	2891	575348.084068391506	962
1	2893	576110.037733800762	963
1	2898	577186.602416122367	965
1	2899	577207.836572499993	964
1	2903	578167.766701290437	966
1	2905	578763.657874893444	968
1	2909	579218.196576274966	967
1	2914	580237.850335333549	969
1	2915	580332.94162480164	971
1	2916	580404.131703078793	970
1	2922	581728.999494435312	974
1	2925	582366.590467980166	973
1	2926	582489.297616900929	972
1	2928	583125.721634924458	975
1	2934	583919.568785140344	977
1	2937	584542.414145171677	976
1	2940	585127.5582463481	978
1	2942	585485.732927592524	979
1	2944	585924.987687030842	980
1	2948	586630.23518119012	981
1	2950	586794.936637859845	982
1	2955	588118.249720707571	983
1	2957	588604.102463834034	984
1	2960	589170.65934967255	985
1	2965	590089.437394822063	987
1	2966	590142.508502583986	986
1	2967	590497.571468912119	988
1	2973	591715.437890589272	990
1	2976	592229.041507327983	991
1	2977	592377.027035644325	989
1	2982	593655.914160283317	992
1	2984	593953.380488092134	993
1	2986	594479.355942411396	994
1	2992	595886.155825993081	995
1	2993	595897.402696916888	996
1	2995	596378.698113514158	997
1	3000	597394.259630050564	999
1	3002	597634.742277022487	998
1	3004	597870.24263036442	1000
1	3009	598994.610543502548	1001
1	3011	599136.962090525823	1003
1	3012	599550.656022504009	1002
1	3018	600668.559497175785	1005
1	3020	600959.847846580723	1004
1	3023	601646.794396592341	1006
1	3027	602514.192960318224	1007
1	3028	602612.872674828449	1008
1	3033	603402.476348541713	1009
1	3036	603925.358577724593	1010
1	3037	604163.648902718031	1011

