version 2
run Parallel_3Teachers-0-20190104-10:50:47-10728
attr configname Parallel_3Teachers
attr datetime 20190104-10:50:47
attr experiment Parallel_3Teachers
attr inifile omnetpp.ini
attr iterationvars "$0=\"uniform\""
attr iterationvarsf uniform-
attr measurement "$0=\"uniform\""
attr network ParallelExamSession
attr processid 10728
attr repetition 0
attr replication #0
attr resultdir results
attr runnumber 0
attr seedset 0
param **.teachersNumber 3
param **.answerTimeDistribution "\"uniform\""
param **.minUniform 300
param **.maxUniform 900
param **.scaleLognormal 6.2854
param **.shapeLognormal 0.4724

vector 0 ParallelExamSession examinationTime:vector ETV
attr source examFinished
vector 1 ParallelExamSession studentID:vector ETV
attr source student
0	1296	260853.837289195532	2104.4353367295
0	1298	260998.08900472711	1412.8535242751
0	1300	261221.201060107011	1904.3562025297
0	1305	262241.639496199811	1387.8022070043
0	1307	262527.634448278725	1529.5454435516
0	1308	263130.532941548187	1909.3318814412
0	1314	263964.767917525048	1723.1284213252
0	1316	264535.808068793297	2008.1736205146
0	1318	264654.602157231455	1524.0692156833
0	1324	265939.190417714452	1284.588260483
0	1325	266233.633706672142	2268.8657891471
0	1326	266337.799612619013	1801.9915438257
0	1331	267178.421541815659	1239.2311241012
0	1335	267855.307270679648	1621.6735640075
0	1336	268311.165471095622	1973.3658584766
0	1339	268895.619632536581	1717.1980907209
0	1343	269493.660456826936	1638.3531861473
0	1345	269861.554547119915	1550.3890760243
0	1349	270670.964472368395	1775.3448398318
0	1353	271723.27177687551	1861.7172297556
0	1354	271774.825036246355	2281.1645794194
0	1359	272796.18434021253	2125.2198678441
0	1361	273227.356820041339	1452.531783795
0	1363	273471.111493371456	1747.8397164959
0	1367	274325.198859209231	1529.0145189967
0	1370	274846.648988686528	1619.2921686452
0	1372	275137.713418900996	1666.6019255295
0	1377	276248.339264653649	1401.6902759671
0	1378	276518.606922961808	2193.4080637526
0	1383	277486.946215527161	2349.2327966262
0	1384	277575.849324697654	1327.510060044
0	1389	278834.841744834594	2316.2348218728
0	1391	279251.965732080887	1676.1164073832
0	1392	279541.40931093137	2054.4630954042
0	1399	281139.2173202243	1597.8080092929
0	1400	281181.656857067745	1929.6911249869
0	1401	281271.406655944921	2436.5649111103
0	1408	282428.439378971259	1246.7825219035
0	1409	282603.290640469671	1464.0733202454
0	1410	282683.413696009703	1412.0070400648
0	1416	283514.382397150646	1085.9430181794
0	1417	283691.541914083093	1088.2512736134
0	1419	284147.965517733284	1464.5518217236
0	1426	285680.016307532818	1988.4743934497
0	1427	285748.712138179715	2234.3297410291
0	1429	286083.469457225912	1935.5039394926
0	1434	287047.961367107958	1367.9450595751
0	1436	287424.757649609844	1676.0455114301
0	1438	287634.487548703365	1551.0180914775
0	1442	288643.724013492496	1595.7626463845
0	1446	289291.461018752344	1656.973470049
0	1447	289407.344426494117	1982.5867768843
0	1452	290625.533817010031	1981.8098035175
0	1453	290943.189054960422	1651.7280362081
0	1456	291700.046278769176	2292.7018522751
0	1461	292766.389505798028	2140.855688788
0	1462	292893.416778696738	1950.2277237363
0	1466	293534.831595467429	1834.7853166983
0	1469	294095.656949188592	1329.2674433906
0	1471	294500.549795664885	1607.1330169681
0	1475	295213.445819355573	1678.6142238881
0	1478	295625.381176639387	1124.8313809745
0	1481	295955.048555787685	1859.3916065991
0	1484	296704.34757135811	1490.9017520025
0	1488	297483.310575876424	1857.929399237
0	1489	297770.603335183147	1815.5547793955
0	1493	298608.353505749281	1904.0059343912
0	1497	299598.047398589591	2114.7368227132
0	1498	299711.220021732185	1940.616686549
0	1502	300679.909233050446	2071.5557273012
0	1505	301370.527531066943	1659.3075093348
0	1507	301541.287507815326	1943.2401092257
0	1513	302825.163961993556	2145.2547289431
0	1514	303098.579182801808	1557.2916749865
0	1515	303107.806169986759	1737.2786389198
0	1521	304487.70722947086	1662.5432674773
0	1523	304767.419575760181	1668.8403929584
0	1525	305247.893921099638	2140.0877511129
0	1529	306272.85628574903	1785.1490562782
0	1533	307191.589580476325	2424.1700047161
0	1534	307300.600085360964	2052.7061642613
0	1536	307978.011809522313	1705.1555237733
0	1542	309178.725110180717	1987.1355297044
0	1544	309509.023146377911	2208.4230610169
0	1547	309963.894223608104	1985.8824140858
0	1551	310832.996036578011	1654.2709263973
0	1554	311334.162353351747	1825.1392069738
0	1555	311709.827053500367	1745.9328298923
0	1559	312652.325401129242	1819.3293645512
0	1562	313195.04597825001	1485.2189247496
0	1563	313219.896477274632	1885.7341239229
0	1570	314721.969278343064	2069.6438772138
0	1571	315131.460791034653	1936.4148127846
0	1572	315188.659682823381	1968.7632055487
0	1579	316081.222890364048	1359.253612021
0	1581	316718.958840519226	1530.2991576958
0	1582	316770.909016812249	1639.4482257776
0	1587	317949.534459505272	1868.3115691412
0	1589	318445.456227986179	1726.497387467
0	1592	319051.664926204859	2280.7559093926
0	1596	319855.506934784395	1905.9724752791
0	1598	320040.645654313303	1595.1894263271
0	1599	320262.06285743977	1210.3979312349
0	1606	321637.969536474003	1375.9066790342
0	1607	321764.356082584745	1723.7104282714
0	1608	322025.07311361846	2169.5661788341
0	1615	323555.49820954915	1791.1421269644
0	1616	323956.304732104792	2318.3351956308
0	1617	324162.367180874612	2137.2940672562
0	1622	325336.532942019439	1781.0347324703
0	1625	325738.171512633602	1575.804331759
0	1629	326215.924259461491	2259.6195273567
0	1630	326525.954343332013	1189.4214013126
0	1635	327272.33283505779	1534.1613224242
0	1637	327998.090040916606	1782.1657814551
0	1639	328072.49449160885	1546.5401482768
0	1644	329001.500455616082	1729.1676205583
0	1645	329098.298032907806	1025.803541299
0	1649	329685.118680400803	1687.0286394842
0	1652	330277.885696990455	1276.3852413744
0	1656	331144.959495915138	2046.6614630073
0	1657	331481.141153723031	1796.0224733222
0	1661	332150.648711063007	1872.7630140726
0	1665	333013.530080672392	1868.5705847573
0	1666	333168.49679723385	1687.3556435108
0	1669	333846.570705855306	1695.9219947923
0	1674	334563.532213401088	1550.0021327287
0	1677	335139.282099623274	1292.711393768
0	1679	335557.641496975005	2389.1446997412
0	1683	336172.067721001842	1608.5355076008
0	1685	336804.390223603737	1665.1081239805
0	1687	337286.383968824552	1728.7424718495
0	1692	338295.005009556227	2122.9372885544
0	1695	338906.357672810596	2101.9674492069
0	1696	339232.736004469947	1946.3520356454
0	1700	339879.27178996619	1584.26678041
0	1705	341119.858152419359	1887.1221479494
0	1706	341284.946174081456	2378.5885012709
0	1707	341641.225423151667	1761.9536331855
0	1714	343146.717920294062	2026.8597678747
0	1715	343349.766236124601	2064.8200620431
0	1716	343398.869049316312	1757.6436261646
0	1723	345036.391057167242	1637.5220078509
0	1724	345057.774534495578	1911.0566142015
0	1725	345058.351762080606	1708.585525956
0	1731	346536.401498364316	1478.6269638687
0	1733	346733.588457433548	1675.2366953529
0	1735	347084.706852631684	2048.3157954644
0	1740	348328.177415113928	1791.7759167496
0	1741	348505.776105076116	1772.1876476426
0	1744	349226.398110576014	2141.6912579443
0	1748	349881.838876381549	1553.6614612676
0	1752	350704.449594626244	1478.0514840502
0	1753	350794.708725437563	2288.9326203614
0	1757	351758.792253630269	1876.9533772487
0	1762	352579.709095694165	1875.2595010679
0	1763	352749.242088524666	1954.5333630871
0	1764	353112.777446955476	1353.9851933252
0	1770	354382.326213363598	1802.6171176694
0	1772	354753.735045902472	2004.4929573778
0	1774	355265.247978083823	2152.4705311283
0	1780	356489.742889534722	2107.4166761711
0	1781	356796.859841281581	1531.6118631978
0	1782	356958.525941753801	2204.7908958513
0	1789	358281.910520559218	1323.3845788054
0	1790	358352.439560042734	1862.696670508
0	1791	358531.653266167301	1734.7934248857
0	1798	360017.080329218921	1735.1698086597
0	1799	360480.42673766617	2127.9871776234
0	1800	360765.278654499012	2233.6253883317
0	1806	361717.219819966746	1700.1394907478
0	1808	362149.906139262053	1384.627484763
0	1809	362270.984520111273	1790.5577824451
0	1816	363777.06476314929	2059.8449431825
0	1817	363906.941493367809	1757.0353541058
0	1820	364446.280698152299	2175.296178041
0	1825	365406.998537387731	1500.0570440199
0	1826	365736.691672587808	1290.4109744355
0	1827	365874.815290560989	2097.7505274117
0	1833	367099.521137494626	1692.5226001069
0	1835	367601.719171553894	1726.9038809929
0	1836	367956.118753412779	2219.427080825
0	1843	369470.135701261493	2370.6145637669
0	1844	369579.329547286078	1977.6103757322
0	1845	369671.706658043008	1715.5879046302
0	1851	371172.605224186587	1702.4695229251
0	1853	371438.160872831982	1766.454214789
0	1854	371539.27815863867	1959.9486113526
0	1861	373085.107585508418	1646.9467126764
0	1862	373205.657316232132	2033.0520920455
0	1863	373419.918514508798	1880.6403558701
0	1869	374534.154651733157	1449.0470662247
0	1872	375148.269542399826	1942.6122261677
0	1873	375389.311605691954	1969.3930911832
0	1877	376243.129741866183	1708.975090133
0	1880	376825.318787712637	1677.0492453128
0	1884	377487.428498687266	2098.1168929953
0	1886	377805.074126226869	1561.9443843607
0	1888	378341.686564218287	1516.3677765056
0	1893	379479.921099124518	1674.8469728976
0	1895	379598.951742751567	2111.5232440643
0	1897	380296.029146527906	1954.3425823096
0	1902	381295.550843328279	1815.6297442038
0	1903	381690.544536989226	2091.5927942377
0	1908	382575.347325811204	1279.7964824829
0	1909	382624.975784635206	2328.9466381073
0	1914	383703.264665370851	2012.7201283816
0	1916	384389.723940566217	1764.748155931
0	1917	384444.076068559703	1868.7287427485
0	1922	385318.31554519017	1615.0508798193
0	1927	386290.564466267866	1846.4883977082
0	1929	386773.568160971671	1455.2526157815
0	1930	386806.699956161937	2416.9760155957
0	1934	387756.076724315104	1465.5122580472
0	1938	388464.100261079192	1690.5321001075
0	1940	388975.695209205186	2168.9952530432
0	1943	389425.501093966928	1669.4243696518
0	1948	390607.263132277922	2143.1628711987
0	1950	391144.976529758459	2169.2813205533
0	1951	391369.623043946963	1944.12194998
0	1955	392080.039283121051	1472.7761508431
0	1959	392903.064812254196	1758.0882824957
0	1960	393121.263269288507	1751.6402253415
0	1965	394325.053842365777	1421.9890301116
0	1966	394434.542444581213	2354.5031614602
0	1969	395259.952553361697	2138.6892840732
0	1974	396252.611242421007	1927.5574000552
0	1976	396673.116837116005	2238.5743925348
0	1978	397125.182833196639	1865.2302798349
0	1982	397549.165394855699	1296.5541524347
0	1986	398530.301027465655	1405.118194269
0	1987	398582.040615426423	1908.9237783104
0	1990	399062.827006029001	1513.6616111733
0	1996	400184.663373185365	1654.3623457197
0	1997	400254.210876440676	1672.1702610143
0	1998	400761.748533183745	1698.9215271547
0	2004	401918.769248575019	1664.5583721343
0	2006	402601.614786498292	2416.9514133129
0	2007	402630.440013203807	1868.6914800201
0	2013	403704.698303947268	1103.083517449
0	2014	403790.141002088833	1871.3717535138
0	2018	404261.517338594459	1631.0773253907
0	2023	405282.65220201579	1492.511199927
0	2024	405747.919419966676	1486.4020813722
0	2025	405844.482361804737	2139.7840578575
0	2030	406700.289982929873	1417.6377809141
0	2034	407329.237273195802	1484.7549113911
0	2035	407767.726198257917	2019.8067782912
0	2040	408658.499933453324	1958.2099505235
0	2043	409394.516537105704	1626.7903388478
0	2044	409538.248660275757	2209.01138708
0	2049	410781.538917822811	2123.0389843695
0	2050	411070.846258476416	1676.3297213707
0	2055	412042.150936787992	2503.9022765122
0	2058	412482.141548255497	1411.2952897791
0	2059	412792.694242531482	2011.1553247087
0	2063	413270.419880049347	1228.2689432614
0	2067	414287.623354420104	1805.4818061646
0	2069	414842.258151294712	2049.5639087632
0	2071	414917.830225266559	1647.4103452172
0	2074	415769.569469103628	1481.9461146835
0	2079	416500.849358271857	1658.5912069771
0	2081	416857.446063961872	1087.8765948582
0	2082	417088.49796066065	2170.6677353941
0	2088	418098.114800825765	1597.2654425539
0	2090	418539.158367924436	1450.6604072638
0	2091	418585.32824856233	1727.8821846005
0	2098	419966.492296150004	1868.3774953242
0	2099	420155.352300172716	1616.1939322483
0	2102	420569.513896806205	1984.1856482439
0	2105	421282.232109177908	1315.7398130279
0	2109	422104.895989503756	1949.543689331
0	2110	422184.873271733563	1615.3593749274
0	2115	423285.80754250293	2003.575433325
0	2117	423773.933943081688	1589.0606713481
0	2119	423934.845795761839	1829.9498062581
0	2124	424900.787546346014	1614.9800038431
0	2127	425296.000443398994	1522.0665003173
0	2128	425713.693118747369	1778.8473229855
0	2132	426150.800587981989	1250.013041636
0	2136	427085.049533983738	1371.3564152364
0	2139	427753.641368821305	2457.6409254223
0	2141	428015.053495299121	1864.2529073171
0	2144	428659.391473839105	1574.3419398554
0	2149	429636.384585918909	1621.3310906198
0	2150	429725.858585955617	1972.2172171343
0	2151	429812.308881618128	1152.917407779
0	2158	431560.703640617472	1834.8450546619
0	2159	431667.723723035351	1855.4148414172
0	2160	431672.640963317876	2036.256377399
0	2167	433479.932353366212	1812.2086303309
0	2168	433597.238186560613	2036.5345459431
0	2169	433700.189455831474	2027.5484925136
0	2175	435228.858801350044	1748.9264479838
0	2177	435651.583044324113	2054.3448577635
0	2179	436000.107251806235	2299.9177959748
0	2184	437076.179725583689	1847.3209242336
0	2186	437171.420440357222	1519.8373960331
0	2187	437469.446371123245	1469.339119317
0	2194	438992.984157800725	1523.5377866775
0	2195	439167.195173073604	1995.7747327164
0	2196	439396.093734819489	2319.9140092358
0	2203	440909.25100911413	1742.0558360405
0	2204	440924.039993807724	1931.055836007
0	2205	440946.870939200791	1550.7772043813
0	2212	443028.742671338885	2119.4916622248
0	2213	443096.548147313348	2172.5081535056
0	2215	443424.513316853019	2477.6423776522
0	2221	444542.853824794336	1514.1111534555
0	2223	444975.390985887544	1550.8776690345
0	2224	445140.875842189468	2044.3276948761
0	2229	446167.398312315388	1624.5444875211
0	2232	446523.10570213017	1547.7147162426
0	2234	446881.943433405883	1741.0675912164
0	2238	447766.711011529014	1243.6053093988
0	2239	448177.932440070479	2010.5341277551
0	2242	449021.071207244001	2139.1277738381
0	2245	449465.719479555309	1699.0084680263
0	2249	450194.461774360432	2016.52933429
0	2253	451124.047686299354	1658.328206744
0	2254	451459.298449941031	2438.227242697
0	2258	452027.736633271023	1833.2748589106
0	2263	452956.786659546242	1832.7389732469
0	2264	453140.433121053554	1681.1346711125
0	2266	453621.996110770895	1594.2594774999
0	2271	454660.15759776351	1703.3709382173
0	2272	454737.795177474671	1597.3620564211
0	2277	455671.514000790238	2049.5178900193
0	2281	456446.319877216638	1786.1622794531
0	2282	456882.704188115948	2144.9090106413
0	2283	456913.132953783541	1241.6189529933
0	2290	458220.462495787123	1337.7583076712
0	2291	458328.501972137065	1882.1820949204
0	2292	458410.745101701512	1497.612147918
0	2299	459842.615658603662	1622.1531628165
0	2300	460044.515075208665	1716.0131030716
0	2301	460055.117392167493	1644.372290466
0	2308	461298.746075760627	1456.130417157
0	2309	461917.747580632611	1862.6301884651
0	2310	462045.482166437478	2000.9670912288
0	2316	463427.136650355586	2128.390574595
0	2318	463634.684474626602	1589.2023081891
0	2319	463859.563204972117	1941.8156243395
0	2325	465056.713839992935	1629.5771896373
0	2328	465592.287515010731	1957.6030403841
0	2329	465717.975824559151	1858.412619587
0	2333	466544.220691965946	1487.506851973
0	2336	467180.579192284541	1588.2916772738
0	2338	467408.233997505202	1690.2581729461
0	2342	468393.87958813464	1849.6588961687
0	2346	469078.913254290866	1898.3340620063
0	2347	469090.932966442823	1682.6989689376
0	2351	470447.745649796032	2053.8660616614
0	2354	470961.215265048715	1882.3020107578
0	2356	471329.678543144882	2238.7455767021
0	2360	472318.467971915432	1870.7223221194
0	2364	473224.830184970096	1895.1516418252
0	2365	473258.949560718659	2297.7342956699
0	2371	474825.998618407228	2507.5306464918
0	2372	475007.290327409327	1782.4601424392
0	2373	475271.203080145691	2012.253519427
0	2379	476625.374280475133	1799.3756620679
0	2381	477218.08996922341	2210.7996418141
0	2383	477734.42076682118	2463.2176866755
0	2387	478317.700383905375	1692.3261034302
0	2389	478749.976971885234	1531.8870026618
0	2394	479798.552493983929	2064.1317271627
0	2397	480311.857616901442	1561.8806450162
0	2398	480473.383954726214	2155.6835708208
0	2402	481403.283924423207	1604.7314304393
0	2405	482126.442856108824	1653.0589013826
0	2407	482474.140209797814	2162.2825928964
0	2412	483504.588440526326	2101.3045161031
0	2414	484016.731401952038	1890.2885458432
0	2416	484346.813395014078	1872.6731852163
0	2421	485232.048940239529	1215.3175382875
0	2422	485300.999003788506	1796.4105632622
0	2426	486222.936049802274	1876.1226547882
0	2430	487048.443103954246	1747.4441001657
0	2431	487173.222584277447	1941.1736440379
0	2434	487624.795171525375	1401.8591217231
0	2439	488929.817028902521	1881.3739249483
0	2440	489208.862766204457	2035.640181927
0	2443	489578.965064277918	1954.1698927525
0	2449	491168.082864442886	1589.117800165
0	2450	491297.048378689265	2367.2313497867
0	2451	491360.596650838907	2151.7338846345
0	2458	492701.400365866767	1533.3175014239
0	2459	492990.484213829096	1629.8875629902
0	2460	493054.783117957464	1757.7347392682
0	2466	493963.367670262278	1261.9673043955
0	2469	494508.424406312457	1453.641288355
0	2470	494822.724696574789	1832.2404827457
0	2474	495481.871967623056	1518.5042973608
0	2477	495996.082361508213	1487.6579551958
0	2480	496501.976804249046	1679.2521076743
0	2482	496748.511689761699	1266.6397221386
0	2487	497753.649125341379	1757.5667638332
0	2488	497989.8567799945	1487.8799757455
0	2493	499052.418290684045	2303.9066009223
0	2494	499345.55376749491	1591.9046421535
0	2498	500048.074294114542	2058.21751412
0	2500	500271.426297538028	1219.008006854
0	2506	501991.096756188252	2645.5429886933
0	2507	502191.80382918571	1920.3775316477
0	2508	502279.705197690111	2231.6309035756
0	2515	503969.558895751888	1978.4621395636
0	2516	504031.122660543815	1839.3188313581
0	2517	504212.543641123977	1932.8384434339
0	2523	505592.164980573636	1379.6213394497
0	2525	505780.475635640377	1810.9167398885
0	2527	506280.008932063401	2248.8862715196
0	2533	507882.160406839158	2289.9954262655
0	2534	508252.023409679587	2471.5477740392
0	2536	508348.886657366575	2068.8777253032
0	2541	509660.907211247887	1778.7468044087
0	2542	509911.495835194411	1562.6091778278
0	2544	510296.637845132555	2044.614435453
0	2549	511206.915827002431	1546.0086157545
0	2553	512039.348635543193	1742.7107904106
0	2554	512221.426233742432	2309.930398548
0	2557	512990.802884241621	1783.8870572392
0	2562	513669.458886282574	1630.1102507394
0	2564	514046.068597957538	1824.6423642151
0	2567	514771.37718466116	1780.5743004195
0	2571	515305.771956872241	1259.7033589147
0	2573	515710.302652604933	2040.8437663224
0	2574	516029.069122206474	1257.6919375453
0	2581	517170.30675206338	1864.5347951911
0	2582	517269.424035307075	1559.1213827021
0	2584	517809.781484585309	1780.7123623788
0	2588	518508.024983760016	1337.7182316966
0	2591	519207.052893703859	1937.6288583968
0	2594	519752.59858053183	1942.8170959465
0	2596	520492.205505771609	1984.1805220116
0	2601	521571.218627505059	1818.6200469732
0	2602	521647.653841087651	2440.6009473838
0	2604	522048.866550112189	1556.6610443406
0	2611	523769.7929391638	2198.5743116587
0	2612	523819.597418233809	2171.9435771462
0	2613	523944.34340964076	1895.4768595286
0	2619	525259.399993624594	1489.6070544608
0	2621	525727.495809830772	1783.15240019
0	2622	525736.021999921707	1916.4245816879
0	2629	527106.711704470275	1370.6897045486
0	2630	527324.338746490013	2064.9387528654
0	2632	527597.938779741572	1870.4429699108
0	2637	529019.633724074868	1912.9220196046
0	2640	529776.948410226079	2179.0096304845
0	2641	529826.356174657178	2502.0174281672
0	2647	531046.111168759001	2026.4774446841
0	2648	531229.685922805267	1452.7375125792
0	2650	531471.211586287302	1644.8554116301
0	2655	532715.182295953902	1485.4963731486
0	2656	532715.830835234431	1669.7196664754
0	2659	533473.718018923011	2002.5064326357
0	2662	534046.400821767794	1331.2185258139
0	2665	534547.542096348536	1831.7112611141
0	2670	535486.408742331025	2012.690723408
0	2672	535808.055503340484	1761.6546815727
0	2674	536311.530653620196	1763.9885572717
0	2680	537448.515236098376	1962.1064937674
0	2681	537671.663723420408	1360.1330698002
0	2682	537699.283846747176	1891.2283434067
0	2687	538890.332097793054	1218.6683743726
0	2691	539706.191082391945	2257.6758462936
0	2692	539825.544040929572	2126.2601941824
0	2696	540596.880139131155	1706.5480413381
0	2699	540959.280349826487	1133.7363088969
0	2701	541314.718462340591	1608.5273799486
0	2706	542544.126216508504	1947.2460773773
0	2708	542781.496056681546	1822.2157068551
0	2711	543429.681200534163	2114.9627381936
0	2714	544060.400098096635	1516.2738815881
0	2715	544066.760124871555	1285.26406819
0	2721	545241.304498259036	1811.6232977249
0	2723	545985.515245422769	1918.7551205512
0	2724	546017.435769131463	1957.0356710348
0	2730	547478.18717616616	2236.8826779071
0	2732	548090.399195160772	2072.9634260293
0	2733	548310.025844257374	2324.5105988346
0	2739	549770.102142635791	2291.9149664696
0	2741	549974.230192601736	1883.830997441
0	2744	550549.311761464973	2239.2859172076
0	2749	551718.289493909161	1744.0593013074
0	2750	552192.407183954551	2422.3050413188
0	2751	552371.217681281318	1821.9059198163
0	2758	553564.997218223344	1846.7077243142
0	2759	553616.933645680605	1424.5264617261
0	2761	553961.607974907433	1590.3902936261
0	2766	555082.574347592948	1465.6407019123
0	2768	555463.570572668741	1898.5733544454
0	2769	555668.771128496205	1707.1631535888
0	2775	556878.250850318058	1795.6765027251
0	2777	557073.357281461412	1609.7867087927
0	2778	557503.999058855747	1835.2279303595
0	2784	558406.674466794415	1528.4236164764
0	2786	558792.343388311619	1718.9861068502
0	2788	559532.629934046466	2028.6308751907
0	2793	560637.353353109269	2230.6788863149
0	2796	561321.332331094945	2528.9889427833
0	2797	561524.581945175354	1991.9520111289
0	2801	562210.046921437665	1572.6935683284
0	2804	562913.096656836624	1591.7643257417
0	2805	563005.731926998173	1481.1499818228
0	2811	564517.619962105587	2307.5730406679
0	2813	564730.970441876034	1817.8737850394
0	2815	564944.720074161937	1938.9881471638
0	2821	566127.86581465048	1183.1457404885
0	2822	566595.205171220059	1864.234729344
0	2824	566621.657788194776	2104.0378260892
0	2828	567525.686822645415	1397.8210079949
0	2833	568581.358635798156	1959.7008476034
0	2834	568667.033290257727	1141.3464676123
0	2835	568798.643374303411	2203.4382030834
0	2841	569940.971213718932	1142.3278394155
0	2843	570001.922592753605	1420.5639569554
0	2845	570329.341081297075	1662.3077910393
0	2851	571634.958517598044	1693.9873038791
0	2852	571908.903095824694	1579.5620145276
0	2853	572021.500092325794	2019.5774995722
0	2860	573625.505947228583	1604.0058549028
0	2861	573664.520290168059	2029.56177257
0	2862	573840.448690205863	1931.5455943812
0	2869	575279.940198222237	1654.4342509937
0	2870	575393.302703043503	1728.7824128754
0	2872	575947.190562123484	2106.7418719176
0	2877	577190.564124751898	1910.6239265297
0	2878	577248.633117741032	1855.3304146975
0	2882	578053.542762436024	2106.3522003125
0	2885	578725.362253049446	1476.7291353084
0	2888	579282.541177980664	2091.9770532288
0	2892	579918.571319757081	1865.0285573211
0	2894	580486.269606370537	1760.9073533211
0	2896	580816.00415739237	1533.4629794117
0	2900	581620.94381474895	1702.3724949919
0	2904	582446.225636405929	1959.9560300354
0	2905	582564.178238622906	1748.1740812305
0	2909	583502.662826981447	1881.7190122325
0	2912	584125.809908425498	1561.6316698026
0	2916	584830.226198444203	2384.0005620383
0	2917	585131.299911160074	1628.6370841786
0	2923	586326.665588608064	1195.365677448
0	2924	586452.453967602986	2326.6440591775
0	2925	586778.633537795454	1948.4073393513
0	2932	588411.549013713437	1959.0950461105
0	2933	588414.774954970979	2088.1093663629
0	2935	589141.025889292418	2362.392351497
0	2940	590196.91069275147	1785.361679038
0	2942	590513.85637004865	2099.0814150777
0	2943	590850.945254741295	1709.9193654489
0	2950	591937.890167534403	1424.0337974858
0	2951	592130.675772903546	1279.7305181623
0	2952	592305.956261744785	2109.0455689933
0	2959	593530.14674456796	1399.4709716644
0	2960	593609.231381630577	1671.3412140962
0	2961	593894.667071057546	1588.7108093128
0	2968	595280.817939899914	1671.5865582693
0	2969	595531.118737394053	1636.4516663365
0	2970	595606.402828730703	2076.2560841627
0	2977	597273.563251085631	1992.7453111857
0	2978	597442.540924390841	1911.4221869968
0	2979	597624.140624329508	2017.7377955988
0	2986	599115.759122930531	1673.2181985397
0	2987	599674.414462968758	2400.8512118831
0	2988	599763.916259491877	2139.7756351624
0	2995	600865.69613381295	1101.7798743211
0	2996	601086.836532969092	1971.0774100386
0	2998	601465.619396651215	1791.2049336825
0	3003	602442.95197022154	1356.1154372524
0	3005	602777.311026351587	1911.6148925386
0	3007	603063.156957970984	1597.5375613198
0	3013	604614.083248050949	2171.1312778294
0	3014	604757.6533910819	1980.3423647303
0	3015	604762.94257566338	1699.7856176924
1	1296	260853.837289195532	430
1	1298	260998.08900472711	432
1	1300	261221.201060107011	431
1	1305	262241.639496199811	433
1	1307	262527.634448278725	434
1	1308	263130.532941548187	435
1	1314	263964.767917525048	436
1	1316	264535.808068793297	437
1	1318	264654.602157231455	438
1	1324	265939.190417714452	441
1	1325	266233.633706672142	439
1	1326	266337.799612619013	440
1	1331	267178.421541815659	442
1	1335	267855.307270679648	443
1	1336	268311.165471095622	444
1	1339	268895.619632536581	445
1	1343	269493.660456826936	446
1	1345	269861.554547119915	447
1	1349	270670.964472368395	448
1	1353	271723.27177687551	450
1	1354	271774.825036246355	449
1	1359	272796.18434021253	451
1	1361	273227.356820041339	453
1	1363	273471.111493371456	452
1	1367	274325.198859209231	454
1	1370	274846.648988686528	455
1	1372	275137.713418900996	456
1	1377	276248.339264653649	458
1	1378	276518.606922961808	457
1	1383	277486.946215527161	459
1	1384	277575.849324697654	460
1	1389	278834.841744834594	461
1	1391	279251.965732080887	463
1	1392	279541.40931093137	462
1	1399	281139.2173202243	466
1	1400	281181.656857067745	465
1	1401	281271.406655944921	464
1	1408	282428.439378971259	468
1	1409	282603.290640469671	467
1	1410	282683.413696009703	469
1	1416	283514.382397150646	470
1	1417	283691.541914083093	471
1	1419	284147.965517733284	472
1	1426	285680.016307532818	474
1	1427	285748.712138179715	473
1	1429	286083.469457225912	475
1	1434	287047.961367107958	476
1	1436	287424.757649609844	477
1	1438	287634.487548703365	478
1	1442	288643.724013492496	479
1	1446	289291.461018752344	481
1	1447	289407.344426494117	480
1	1452	290625.533817010031	482
1	1453	290943.189054960422	483
1	1456	291700.046278769176	484
1	1461	292766.389505798028	485
1	1462	292893.416778696738	486
1	1466	293534.831595467429	487
1	1469	294095.656949188592	488
1	1471	294500.549795664885	489
1	1475	295213.445819355573	490
1	1478	295625.381176639387	492
1	1481	295955.048555787685	491
1	1484	296704.34757135811	493
1	1488	297483.310575876424	494
1	1489	297770.603335183147	495
1	1493	298608.353505749281	496
1	1497	299598.047398589591	497
1	1498	299711.220021732185	498
1	1502	300679.909233050446	499
1	1505	301370.527531066943	501
1	1507	301541.287507815326	500
1	1513	302825.163961993556	502
1	1514	303098.579182801808	504
1	1515	303107.806169986759	503
1	1521	304487.70722947086	505
1	1523	304767.419575760181	506
1	1525	305247.893921099638	507
1	1529	306272.85628574903	508
1	1533	307191.589580476325	509
1	1534	307300.600085360964	510
1	1536	307978.011809522313	511
1	1542	309178.725110180717	512
1	1544	309509.023146377911	513
1	1547	309963.894223608104	514
1	1551	310832.996036578011	515
1	1554	311334.162353351747	516
1	1555	311709.827053500367	517
1	1559	312652.325401129242	518
1	1562	313195.04597825001	520
1	1563	313219.896477274632	519
1	1570	314721.969278343064	521
1	1571	315131.460791034653	522
1	1572	315188.659682823381	523
1	1579	316081.222890364048	524
1	1581	316718.958840519226	526
1	1582	316770.909016812249	525
1	1587	317949.534459505272	527
1	1589	318445.456227986179	528
1	1592	319051.664926204859	529
1	1596	319855.506934784395	530
1	1598	320040.645654313303	531
1	1599	320262.06285743977	532
1	1606	321637.969536474003	535
1	1607	321764.356082584745	534
1	1608	322025.07311361846	533
1	1615	323555.49820954915	537
1	1616	323956.304732104792	536
1	1617	324162.367180874612	538
1	1622	325336.532942019439	539
1	1625	325738.171512633602	541
1	1629	326215.924259461491	540
1	1630	326525.954343332013	542
1	1635	327272.33283505779	543
1	1637	327998.090040916606	544
1	1639	328072.49449160885	545
1	1644	329001.500455616082	546
1	1645	329098.298032907806	548
1	1649	329685.118680400803	547
1	1652	330277.885696990455	549
1	1656	331144.959495915138	550
1	1657	331481.141153723031	551
1	1661	332150.648711063007	552
1	1665	333013.530080672392	553
1	1666	333168.49679723385	554
1	1669	333846.570705855306	555
1	1674	334563.532213401088	556
1	1677	335139.282099623274	558
1	1679	335557.641496975005	557
1	1683	336172.067721001842	559
1	1685	336804.390223603737	560
1	1687	337286.383968824552	561
1	1692	338295.005009556227	562
1	1695	338906.357672810596	563
1	1696	339232.736004469947	564
1	1700	339879.27178996619	565
1	1705	341119.858152419359	567
1	1706	341284.946174081456	566
1	1707	341641.225423151667	568
1	1714	343146.717920294062	569
1	1715	343349.766236124601	570
1	1716	343398.869049316312	571
1	1723	345036.391057167242	574
1	1724	345057.774534495578	572
1	1725	345058.351762080606	573
1	1731	346536.401498364316	576
1	1733	346733.588457433548	577
1	1735	347084.706852631684	575
1	1740	348328.177415113928	578
1	1741	348505.776105076116	579
1	1744	349226.398110576014	580
1	1748	349881.838876381549	581
1	1752	350704.449594626244	583
1	1753	350794.708725437563	582
1	1757	351758.792253630269	584
1	1762	352579.709095694165	585
1	1763	352749.242088524666	586
1	1764	353112.777446955476	587
1	1770	354382.326213363598	588
1	1772	354753.735045902472	589
1	1774	355265.247978083823	590
1	1780	356489.742889534722	591
1	1781	356796.859841281581	593
1	1782	356958.525941753801	592
1	1789	358281.910520559218	596
1	1790	358352.439560042734	594
1	1791	358531.653266167301	595
1	1798	360017.080329218921	597
1	1799	360480.42673766617	598
1	1800	360765.278654499012	599
1	1806	361717.219819966746	600
1	1808	362149.906139262053	602
1	1809	362270.984520111273	601
1	1816	363777.06476314929	603
1	1817	363906.941493367809	604
1	1820	364446.280698152299	605
1	1825	365406.998537387731	607
1	1826	365736.691672587808	608
1	1827	365874.815290560989	606
1	1833	367099.521137494626	609
1	1835	367601.719171553894	611
1	1836	367956.118753412779	610
1	1843	369470.135701261493	612
1	1844	369579.329547286078	613
1	1845	369671.706658043008	614
1	1851	371172.605224186587	615
1	1853	371438.160872831982	617
1	1854	371539.27815863867	616
1	1861	373085.107585508418	619
1	1862	373205.657316232132	618
1	1863	373419.918514508798	620
1	1869	374534.154651733157	621
1	1872	375148.269542399826	622
1	1873	375389.311605691954	623
1	1877	376243.129741866183	624
1	1880	376825.318787712637	625
1	1884	377487.428498687266	626
1	1886	377805.074126226869	627
1	1888	378341.686564218287	628
1	1893	379479.921099124518	630
1	1895	379598.951742751567	629
1	1897	380296.029146527906	631
1	1902	381295.550843328279	632
1	1903	381690.544536989226	633
1	1908	382575.347325811204	635
1	1909	382624.975784635206	634
1	1914	383703.264665370851	636
1	1916	384389.723940566217	638
1	1917	384444.076068559703	637
1	1922	385318.31554519017	639
1	1927	386290.564466267866	641
1	1929	386773.568160971671	642
1	1930	386806.699956161937	640
1	1934	387756.076724315104	643
1	1938	388464.100261079192	644
1	1940	388975.695209205186	645
1	1943	389425.501093966928	646
1	1948	390607.263132277922	647
1	1950	391144.976529758459	648
1	1951	391369.623043946963	649
1	1955	392080.039283121051	650
1	1959	392903.064812254196	651
1	1960	393121.263269288507	652
1	1965	394325.053842365777	654
1	1966	394434.542444581213	653
1	1969	395259.952553361697	655
1	1974	396252.611242421007	656
1	1976	396673.116837116005	657
1	1978	397125.182833196639	658
1	1982	397549.165394855699	659
1	1986	398530.301027465655	661
1	1987	398582.040615426423	660
1	1990	399062.827006029001	662
1	1996	400184.663373185365	663
1	1997	400254.210876440676	664
1	1998	400761.748533183745	665
1	2004	401918.769248575019	667
1	2006	402601.614786498292	666
1	2007	402630.440013203807	668
1	2013	403704.698303947268	670
1	2014	403790.141002088833	669
1	2018	404261.517338594459	671
1	2023	405282.65220201579	673
1	2024	405747.919419966676	674
1	2025	405844.482361804737	672
1	2030	406700.289982929873	675
1	2034	407329.237273195802	677
1	2035	407767.726198257917	676
1	2040	408658.499933453324	678
1	2043	409394.516537105704	680
1	2044	409538.248660275757	679
1	2049	410781.538917822811	681
1	2050	411070.846258476416	682
1	2055	412042.150936787992	683
1	2058	412482.141548255497	685
1	2059	412792.694242531482	684
1	2063	413270.419880049347	686
1	2067	414287.623354420104	687
1	2069	414842.258151294712	688
1	2071	414917.830225266559	689
1	2074	415769.569469103628	690
1	2079	416500.849358271857	691
1	2081	416857.446063961872	693
1	2082	417088.49796066065	692
1	2088	418098.114800825765	694
1	2090	418539.158367924436	696
1	2091	418585.32824856233	695
1	2098	419966.492296150004	697
1	2099	420155.352300172716	698
1	2102	420569.513896806205	699
1	2105	421282.232109177908	700
1	2109	422104.895989503756	701
1	2110	422184.873271733563	702
1	2115	423285.80754250293	703
1	2117	423773.933943081688	705
1	2119	423934.845795761839	704
1	2124	424900.787546346014	706
1	2127	425296.000443398994	707
1	2128	425713.693118747369	708
1	2132	426150.800587981989	709
1	2136	427085.049533983738	711
1	2139	427753.641368821305	710
1	2141	428015.053495299121	712
1	2144	428659.391473839105	713
1	2149	429636.384585918909	715
1	2150	429725.858585955617	714
1	2151	429812.308881618128	716
1	2158	431560.703640617472	718
1	2159	431667.723723035351	719
1	2160	431672.640963317876	717
1	2167	433479.932353366212	721
1	2168	433597.238186560613	720
1	2169	433700.189455831474	722
1	2175	435228.858801350044	723
1	2177	435651.583044324113	724
1	2179	436000.107251806235	725
1	2184	437076.179725583689	726
1	2186	437171.420440357222	727
1	2187	437469.446371123245	728
1	2194	438992.984157800725	731
1	2195	439167.195173073604	730
1	2196	439396.093734819489	729
1	2203	440909.25100911413	733
1	2204	440924.039993807724	732
1	2205	440946.870939200791	734
1	2212	443028.742671338885	735
1	2213	443096.548147313348	736
1	2215	443424.513316853019	737
1	2221	444542.853824794336	738
1	2223	444975.390985887544	740
1	2224	445140.875842189468	739
1	2229	446167.398312315388	741
1	2232	446523.10570213017	742
1	2234	446881.943433405883	743
1	2238	447766.711011529014	745
1	2239	448177.932440070479	744
1	2242	449021.071207244001	746
1	2245	449465.719479555309	747
1	2249	450194.461774360432	748
1	2253	451124.047686299354	750
1	2254	451459.298449941031	749
1	2258	452027.736633271023	751
1	2263	452956.786659546242	752
1	2264	453140.433121053554	753
1	2266	453621.996110770895	754
1	2271	454660.15759776351	755
1	2272	454737.795177474671	756
1	2277	455671.514000790238	757
1	2281	456446.319877216638	758
1	2282	456882.704188115948	759
1	2283	456913.132953783541	760
1	2290	458220.462495787123	762
1	2291	458328.501972137065	761
1	2292	458410.745101701512	763
1	2299	459842.615658603662	764
1	2300	460044.515075208665	765
1	2301	460055.117392167493	766
1	2308	461298.746075760627	767
1	2309	461917.747580632611	769
1	2310	462045.482166437478	768
1	2316	463427.136650355586	770
1	2318	463634.684474626602	772
1	2319	463859.563204972117	771
1	2325	465056.713839992935	773
1	2328	465592.287515010731	774
1	2329	465717.975824559151	775
1	2333	466544.220691965946	776
1	2336	467180.579192284541	777
1	2338	467408.233997505202	778
1	2342	468393.87958813464	779
1	2346	469078.913254290866	780
1	2347	469090.932966442823	781
1	2351	470447.745649796032	782
1	2354	470961.215265048715	783
1	2356	471329.678543144882	784
1	2360	472318.467971915432	785
1	2364	473224.830184970096	787
1	2365	473258.949560718659	786
1	2371	474825.998618407228	788
1	2372	475007.290327409327	789
1	2373	475271.203080145691	790
1	2379	476625.374280475133	791
1	2381	477218.08996922341	792
1	2383	477734.42076682118	793
1	2387	478317.700383905375	794
1	2389	478749.976971885234	795
1	2394	479798.552493983929	796
1	2397	480311.857616901442	798
1	2398	480473.383954726214	797
1	2402	481403.283924423207	799
1	2405	482126.442856108824	801
1	2407	482474.140209797814	800
1	2412	483504.588440526326	802
1	2414	484016.731401952038	803
1	2416	484346.813395014078	804
1	2421	485232.048940239529	806
1	2422	485300.999003788506	805
1	2426	486222.936049802274	807
1	2430	487048.443103954246	809
1	2431	487173.222584277447	808
1	2434	487624.795171525375	810
1	2439	488929.817028902521	811
1	2440	489208.862766204457	812
1	2443	489578.965064277918	813
1	2449	491168.082864442886	816
1	2450	491297.048378689265	814
1	2451	491360.596650838907	815
1	2458	492701.400365866767	817
1	2459	492990.484213829096	819
1	2460	493054.783117957464	818
1	2466	493963.367670262278	820
1	2469	494508.424406312457	822
1	2470	494822.724696574789	821
1	2474	495481.871967623056	823
1	2477	495996.082361508213	824
1	2480	496501.976804249046	825
1	2482	496748.511689761699	826
1	2487	497753.649125341379	827
1	2488	497989.8567799945	828
1	2493	499052.418290684045	829
1	2494	499345.55376749491	830
1	2498	500048.074294114542	831
1	2500	500271.426297538028	832
1	2506	501991.096756188252	833
1	2507	502191.80382918571	835
1	2508	502279.705197690111	834
1	2515	503969.558895751888	836
1	2516	504031.122660543815	837
1	2517	504212.543641123977	838
1	2523	505592.164980573636	841
1	2525	505780.475635640377	839
1	2527	506280.008932063401	840
1	2533	507882.160406839158	842
1	2534	508252.023409679587	843
1	2536	508348.886657366575	844
1	2541	509660.907211247887	845
1	2542	509911.495835194411	847
1	2544	510296.637845132555	846
1	2549	511206.915827002431	848
1	2553	512039.348635543193	850
1	2554	512221.426233742432	849
1	2557	512990.802884241621	851
1	2562	513669.458886282574	852
1	2564	514046.068597957538	853
1	2567	514771.37718466116	854
1	2571	515305.771956872241	856
1	2573	515710.302652604933	855
1	2574	516029.069122206474	857
1	2581	517170.30675206338	858
1	2582	517269.424035307075	859
1	2584	517809.781484585309	860
1	2588	518508.024983760016	861
1	2591	519207.052893703859	862
1	2594	519752.59858053183	863
1	2596	520492.205505771609	864
1	2601	521571.218627505059	866
1	2602	521647.653841087651	865
1	2604	522048.866550112189	867
1	2611	523769.7929391638	868
1	2612	523819.597418233809	869
1	2613	523944.34340964076	870
1	2619	525259.399993624594	871
1	2621	525727.495809830772	873
1	2622	525736.021999921707	872
1	2629	527106.711704470275	876
1	2630	527324.338746490013	874
1	2632	527597.938779741572	875
1	2637	529019.633724074868	877
1	2640	529776.948410226079	879
1	2641	529826.356174657178	878
1	2647	531046.111168759001	880
1	2648	531229.685922805267	881
1	2650	531471.211586287302	882
1	2655	532715.182295953902	884
1	2656	532715.830835234431	883
1	2659	533473.718018923011	885
1	2662	534046.400821767794	886
1	2665	534547.542096348536	887
1	2670	535486.408742331025	888
1	2672	535808.055503340484	889
1	2674	536311.530653620196	890
1	2680	537448.515236098376	891
1	2681	537671.663723420408	893
1	2682	537699.283846747176	892
1	2687	538890.332097793054	895
1	2691	539706.191082391945	894
1	2692	539825.544040929572	896
1	2696	540596.880139131155	897
1	2699	540959.280349826487	899
1	2701	541314.718462340591	898
1	2706	542544.126216508504	900
1	2708	542781.496056681546	901
1	2711	543429.681200534163	902
1	2714	544060.400098096635	903
1	2715	544066.760124871555	904
1	2721	545241.304498259036	905
1	2723	545985.515245422769	907
1	2724	546017.435769131463	906
1	2730	547478.18717616616	908
1	2732	548090.399195160772	910
1	2733	548310.025844257374	909
1	2739	549770.102142635791	911
1	2741	549974.230192601736	912
1	2744	550549.311761464973	913
1	2749	551718.289493909161	915
1	2750	552192.407183954551	914
1	2751	552371.217681281318	916
1	2758	553564.997218223344	917
1	2759	553616.933645680605	918
1	2761	553961.607974907433	919
1	2766	555082.574347592948	921
1	2768	555463.570572668741	920
1	2769	555668.771128496205	922
1	2775	556878.250850318058	923
1	2777	557073.357281461412	924
1	2778	557503.999058855747	925
1	2784	558406.674466794415	926
1	2786	558792.343388311619	927
1	2788	559532.629934046466	928
1	2793	560637.353353109269	929
1	2796	561321.332331094945	930
1	2797	561524.581945175354	931
1	2801	562210.046921437665	932
1	2804	562913.096656836624	933
1	2805	563005.731926998173	934
1	2811	564517.619962105587	935
1	2813	564730.970441876034	936
1	2815	564944.720074161937	937
1	2821	566127.86581465048	940
1	2822	566595.205171220059	939
1	2824	566621.657788194776	938
1	2828	567525.686822645415	941
1	2833	568581.358635798156	943
1	2834	568667.033290257727	944
1	2835	568798.643374303411	942
1	2841	569940.971213718932	947
1	2843	570001.922592753605	945
1	2845	570329.341081297075	946
1	2851	571634.958517598044	948
1	2852	571908.903095824694	950
1	2853	572021.500092325794	949
1	2860	573625.505947228583	953
1	2861	573664.520290168059	951
1	2862	573840.448690205863	952
1	2869	575279.940198222237	954
1	2870	575393.302703043503	955
1	2872	575947.190562123484	956
1	2877	577190.564124751898	957
1	2878	577248.633117741032	958
1	2882	578053.542762436024	959
1	2885	578725.362253049446	961
1	2888	579282.541177980664	960
1	2892	579918.571319757081	962
1	2894	580486.269606370537	963
1	2896	580816.00415739237	964
1	2900	581620.94381474895	965
1	2904	582446.225636405929	966
1	2905	582564.178238622906	967
1	2909	583502.662826981447	968
1	2912	584125.809908425498	970
1	2916	584830.226198444203	969
1	2917	585131.299911160074	971
1	2923	586326.665588608064	974
1	2924	586452.453967602986	972
1	2925	586778.633537795454	973
1	2932	588411.549013713437	976
1	2933	588414.774954970979	975
1	2935	589141.025889292418	977
1	2940	590196.91069275147	978
1	2942	590513.85637004865	979
1	2943	590850.945254741295	980
1	2950	591937.890167534403	982
1	2951	592130.675772903546	983
1	2952	592305.956261744785	981
1	2959	593530.14674456796	985
1	2960	593609.231381630577	984
1	2961	593894.667071057546	986
1	2968	595280.817939899914	988
1	2969	595531.118737394053	989
1	2970	595606.402828730703	987
1	2977	597273.563251085631	990
1	2978	597442.540924390841	991
1	2979	597624.140624329508	992
1	2986	599115.759122930531	994
1	2987	599674.414462968758	993
1	2988	599763.916259491877	995
1	2995	600865.69613381295	998
1	2996	601086.836532969092	996
1	2998	601465.619396651215	997
1	3003	602442.95197022154	1000
1	3005	602777.311026351587	999
1	3007	603063.156957970984	1001
1	3013	604614.083248050949	1002
1	3014	604757.6533910819	1003
1	3015	604762.94257566338	1004

