version 2
run Parallel_3Teachers-1-20190104-10:50:47-16024
attr configname Parallel_3Teachers
attr datetime 20190104-10:50:47
attr experiment Parallel_3Teachers
attr inifile omnetpp.ini
attr iterationvars "$0=\"uniform\""
attr iterationvarsf uniform-
attr measurement "$0=\"uniform\""
attr network ParallelExamSession
attr processid 16024
attr repetition 1
attr replication #1
attr resultdir results
attr runnumber 1
attr seedset 1
param **.teachersNumber 3
param **.answerTimeDistribution "\"uniform\""
param **.minUniform 300
param **.maxUniform 900
param **.scaleLognormal 6.2854
param **.shapeLognormal 0.4724

vector 0 ParallelExamSession examinationTime:vector ETV
attr source examFinished
vector 1 ParallelExamSession studentID:vector ETV
attr source student
0	1311	260599.025204451774	1949.2426905781
0	1313	261173.011278966454	2321.6851196252
0	1315	261358.293408527994	1861.7755584419
0	1321	262699.975275015477	2100.9500705637
0	1322	262764.154449524382	1405.8610409964
0	1325	263387.901135161532	2214.8898561951
0	1329	264040.839888341749	1276.6854388174
0	1330	264491.161970095727	1791.1866950803
0	1335	265502.485275501398	2114.5841403399
0	1337	265993.534669093806	1502.3726989981
0	1338	266071.503115491966	2030.6632271502
0	1343	267435.054342588422	1932.569067087
0	1346	268035.65707742239	1964.1539619304
0	1348	268240.959695912916	2247.4250268191
0	1352	269338.068928755832	1903.0145861674
0	1357	270139.496757555771	1898.5370616429
0	1358	270512.786759482721	2477.1296820603
0	1360	270810.018349718314	1471.9494209625
0	1366	272099.847756419349	1960.3509988636
0	1367	272507.969054952276	1697.950705234
0	1368	272622.691659908767	2109.904900426
0	1373	273781.353537831474	1681.5057814121
0	1376	274323.856072453794	1815.8870175015
0	1378	274518.162237899403	1895.4705779906
0	1382	275499.946923041735	1718.5933852103
0	1385	276028.557367762576	1510.3951298632
0	1386	276291.099722636876	1967.2436501831
0	1392	277176.020165439715	1676.073242398
0	1394	277584.632178302867	1293.532455666
0	1395	277922.90262104946	1894.3452532869
0	1402	278851.156704733168	1675.1365392935
0	1403	279105.403039790702	1520.7708614878
0	1404	279399.174817325573	1476.2721962761
0	1409	280417.95268356802	1566.7959788349
0	1413	281198.152714222682	2092.749674432
0	1414	281269.078962877419	1869.9041455518
0	1417	281825.85582062604	1407.903137058
0	1423	282870.537716243428	1672.3850020207
0	1424	283259.90459206516	1434.0487714391
0	1425	283324.42727568562	2055.3483128082
0	1432	284810.029503190902	1939.4917869475
0	1433	285194.659071229425	1870.2317955438
0	1434	285337.015949003418	2077.1113569383
0	1440	286311.041086725918	1116.3820154965
0	1442	286632.95630081558	1822.9267976247
0	1443	286986.798882577587	1649.7829335742
0	1450	288780.00263823199	2468.9615515061
0	1451	288787.33806330712	2154.3817624915
0	1452	288940.889610629548	1954.090728052
0	1459	290849.164114287143	1908.2745036576
0	1460	290871.473312750473	2084.1352494434
0	1461	290984.137200191644	2204.1345619597
0	1468	292669.70985992813	1798.2365471777
0	1469	292689.95142560455	1705.8142254129
0	1470	292730.959132500013	1881.7950182129
0	1477	294627.120219077935	1896.1610865779
0	1478	294640.952520445016	1951.0010948405
0	1479	294910.807673167452	2241.0978132393
0	1486	296208.82114567796	1581.7009266
0	1488	296739.753470476745	2098.8009500317
0	1490	296854.911244567498	1944.1035714
0	1491	297171.657298738158	962.8361530602
0	1498	298913.021028321265	2173.2675578445
0	1499	298963.96739780905	1792.3100990709
0	1500	298992.872712900877	2137.9614683334
0	1507	300826.57573814506	1862.608340336
0	1508	300951.374711841373	2038.3536835201
0	1509	301012.927063414842	2020.054350514
0	1514	302165.378546062879	1338.8028079178
0	1518	302902.883505960942	1889.9564425461
0	1519	303078.920361958472	2127.5456501171
0	1523	304189.602177031361	2024.2236309685
0	1526	304557.683611940608	1654.8001059797
0	1530	305028.289453871577	1949.3690919131
0	1532	305644.656279450298	1086.9726675097
0	1533	305726.244784053438	1536.6426070221
0	1539	306766.741498746001	1040.4967146926
0	1541	307309.696513786941	2281.4070599154
0	1542	307605.061758309619	1960.4054788593
0	1548	308472.044148948067	1705.3026502021
0	1550	308880.211500031902	1570.514986245
0	1554	309549.278525495918	1944.2167671863
0	1555	309669.707504846179	1197.6633558981
0	1560	311055.300847347855	2175.089347316
0	1562	311154.475167207435	1605.1966417115
0	1563	311422.428032057384	1752.7205272112
0	1570	312974.208283145004	1551.7802510876
0	1571	313061.215943517179	1906.7407763097
0	1572	313091.44010678868	2036.1392594408
0	1579	314868.447279743866	1807.2313362267
0	1580	314886.064018355706	1911.8557352107
0	1581	314952.386497333676	1860.946390545
0	1587	316007.84407323228	1139.3967934884
0	1588	316180.478747421899	1294.4147290662
0	1593	316994.173023523793	2041.7865261901
0	1594	317292.508706543612	1284.6646333113
0	1598	317935.39731865751	1754.9185712356
0	1602	319034.643422160328	2040.4703986365
0	1603	319168.872133875284	1876.3634273317
0	1608	320261.051702499411	2325.6543838419
0	1610	320889.810534892634	1855.1671127323
0	1611	321042.339762579669	1873.4676287044
0	1617	322313.515414763263	2052.4637122639
0	1619	322629.971408564617	1587.6316459849
0	1621	322655.646609049321	1765.8360741567
0	1625	323668.166801892242	1354.651387129
0	1629	324488.841445790635	1833.1948367413
0	1631	324702.866615680997	2072.8952071164
0	1632	325203.123271605021	1534.9564697128
0	1639	326548.143232706955	1345.0199611019
0	1640	326691.421717079388	2202.5802712888
0	1641	326909.030149457995	2206.163533777
0	1648	328347.075736010468	1798.9325033035
0	1649	328372.854663804193	1463.8245143462
0	1650	328481.383228814261	1789.9615117349
0	1657	329830.373722314866	1348.9904935006
0	1658	329883.809871599099	1536.7341355886
0	1659	330177.997129457091	1805.1424656529
0	1666	331442.199312150509	1611.8255898356
0	1667	331585.50522630105	1701.695354702
0	1669	331967.823745636289	1789.8266161792
0	1675	333350.425775209472	1908.226463059
0	1676	333658.038896229138	2072.5336699281
0	1678	333868.097796477397	1900.2740508411
0	1684	335227.596881892551	1359.4990854152
0	1685	335366.602998040647	2016.1772228312
0	1686	335761.607415648197	2103.5685194191
0	1692	337008.364871051192	1641.7618730105
0	1694	337254.505822341908	2026.9089404494
0	1697	337868.195671448504	2106.5882558003
0	1701	338816.520567750588	1808.1556966994
0	1702	339041.401078831423	1786.8952564895
0	1706	339831.909132795428	1963.7134613469
0	1709	340286.018828395784	1469.4982606452
0	1711	340949.62803851815	1908.2269596867
0	1714	341583.950609201585	1752.0414764062
0	1719	342546.223939396472	2260.2051110007
0	1721	342836.613788316046	1886.9857497979
0	1722	343179.576254915465	1595.6256457139
0	1729	344557.536016870309	1377.9597619548
0	1730	344683.541982108759	2137.3180427123
0	1731	345100.114320963641	2263.5005326476
0	1738	346345.018507260848	1787.4824903905
0	1739	346414.846846461328	1731.3048643526
0	1742	346880.69446189331	1780.5801409297
0	1747	347847.643990488742	1502.6254832279
0	1748	348012.97086356211	1598.1240171008
0	1750	348473.053634259869	1592.3591723666
0	1756	349715.452203014885	1242.398568755
0	1757	349883.308776514624	2035.6647860259
0	1758	349908.398073446039	1895.4272098839
0	1765	351333.670041337629	1618.2178383227
0	1766	351334.972964460049	1451.6641879454
0	1767	351612.309330794994	1703.911257349
0	1773	352880.687714181861	1547.0176728442
0	1775	353056.701072072629	1721.7281076126
0	1778	353657.694917544757	2045.3855867498
0	1781	354009.024393791352	952.32332171872
0	1783	354303.940516943133	1423.2528027613
0	1787	355206.571835931426	1548.8769183867
0	1791	355871.686470927691	1567.7459539846
0	1793	356544.622713234294	2535.5983194429
0	1795	357128.040954563803	1921.4691186324
0	1800	357900.061008380746	2028.3745374531
0	1802	358395.956680225227	1851.3339669909
0	1805	358886.482775257936	1758.4418206941
0	1810	359944.012770568971	1548.0560903437
0	1811	360142.942538671216	2242.8815302905
0	1812	360629.769976297429	1743.2872010395
0	1819	361893.469625758042	1263.6996494606
0	1821	362343.631178000962	2200.6886393297
0	1822	362389.698932692428	2445.6861621235
0	1826	363101.289997994934	1207.8203722369
0	1830	364115.743156615665	1726.0442239232
0	1831	364255.010324902853	1911.3791469019
0	1837	365487.89912341166	2386.6091254167
0	1838	365783.311862591674	1528.3015376888
0	1840	366054.845627211056	1939.1024705954
0	1844	366827.77529843155	1339.8761750199
0	1847	367259.96171082372	1476.649848232
0	1849	367739.138854388169	1684.2932271771
0	1854	368854.692634195124	2026.9173357636
0	1856	369325.055659655503	1585.9168052673
0	1858	369414.533841982504	2154.5721311588
0	1864	370652.724644495196	1327.6689848397
0	1865	370697.360892640462	1842.6682584453
0	1868	371345.246400218477	1930.712558236
0	1871	372165.454259701109	1468.0933670606
0	1873	372261.736764991678	1609.0121204965
0	1879	373586.627005320078	1421.172745619
0	1880	373694.889811612686	2349.6434113942
0	1881	373711.62836160513	1449.8915966135
0	1888	375300.819768570399	1714.1927632503
0	1889	375341.845976002534	1646.9561643898
0	1890	375698.949654260673	1987.3212926555
0	1896	376801.650331215968	1500.8305626456
0	1898	377043.997152429094	1702.1511764266
0	1900	377348.644169373461	1649.6945151128
0	1906	378598.963541071897	1797.3132098559
0	1907	378706.031843740513	1662.0346913114
0	1909	378941.535278689139	1592.8911093157
0	1915	380033.690435858479	1434.7268947866
0	1916	380525.974635640182	1584.439356951
0	1918	380720.16958440656	2014.137740666
0	1921	381547.004004847294	1513.3135689888
0	1926	382860.094783594855	2334.1201479547
0	1929	383186.974925827254	2466.8053414207
0	1931	383800.191487977317	2253.18748313
0	1933	384110.535843344429	1250.4410597496
0	1937	384943.426403543	1756.4514777157
0	1941	385766.275701206214	1966.0842132289
0	1942	386103.887666109973	1993.3518227655
0	1947	386941.23132540848	1174.9556242023
0	1949	387382.79094658794	2439.3645430449
0	1951	387588.30356667752	1484.4159005675
0	1956	388524.541961448304	1583.3106360398
0	1958	389008.754089800661	1625.9631432127
0	1961	389577.938698371896	1989.6351316944
0	1966	390564.408802567087	2039.8668411188
0	1967	390573.005271703025	1564.2511819024
0	1968	390701.90804000015	1123.9693416283
0	1974	391818.799100071212	1245.7938283682
0	1976	392234.971685288512	1670.5628827214
0	1977	392452.824653685118	1750.916613685
0	1984	394024.059324665015	2205.2602245938
0	1985	394232.198757352346	1997.2270720638
0	1986	394381.743894657145	1928.919240972
0	1992	395729.276782041436	1705.2174573764
0	1994	396057.893616892423	1676.1497222353
0	1997	396607.196140056514	2374.9973827042
0	2002	397770.807622605973	1163.6114825495
0	2003	397898.213121481261	2168.9363394398
0	2004	398152.056708047192	2094.1630911548
0	2011	399475.807720469333	1577.5945989881
0	2012	399660.979713778968	1508.9230057318
0	2013	399802.159686572888	2031.3520639669
0	2020	401301.410706667254	1640.4309928883
0	2021	401512.467087898425	2036.6593674291
0	2022	401611.599440407047	1809.4397538342
0	2028	402770.113946450899	1468.7032397836
0	2030	403148.587291035823	1636.1202031374
0	2032	403470.943062007467	1859.3436216004
0	2036	404162.611857382606	1392.4979109317
0	2040	404895.195281552173	1746.6079905163
0	2041	405369.07225716863	1898.1291951612
0	2045	406112.058795103828	1949.4469377212
0	2048	406808.522698469482	1913.3274169173
0	2051	407403.856927435884	2034.7846702673
0	2055	408186.403561430077	2074.3447663262
0	2058	408735.407530702673	1926.8848322332
0	2059	409027.854078495914	1623.99715106
0	2064	409847.232703305806	1660.8291418757
0	2066	410116.010538255819	1380.6030075531
0	2068	410506.05377582837	1478.1996973325
0	2072	411457.726391684289	1610.4936883785
0	2076	412241.630784049653	2125.6202457938
0	2077	412339.973639091515	1833.9198632631
0	2080	412775.096274213891	1317.3698825296
0	2085	413707.8197862022	1367.8461471107
0	2087	414430.945493979402	2189.3147099297
0	2089	414774.662686558467	1999.5664123446
0	2094	416135.334979696238	2427.515193494
0	2096	416357.746025780238	1926.8005318008
0	2097	416691.907613491666	1917.2449269332
0	2103	418224.488570541165	1866.7425447609
0	2105	418480.826457124242	2345.491477428
0	2106	418585.376573307467	1893.4689598158
0	2112	420052.528100833319	1828.0395302922
0	2114	420377.834899490727	1792.4583261833
0	2115	420402.763881627509	1921.9374245033
0	2122	421784.714614832796	1732.1865139995
0	2123	422006.019840622349	1628.1849411316
0	2125	422399.495612550566	1996.7317309231
0	2131	423688.112713303439	1903.3980984706
0	2132	424112.524507055099	1713.0288945045
0	2133	424251.291282428457	2245.2714418061
0	2139	425468.05514409209	1779.9424307887
0	2140	425630.085303448181	1517.5607963931
0	2143	426220.022194879158	1968.7309124507
0	2147	427175.99301855082	1707.9378744587
0	2150	427856.063315598335	2225.9780121502
0	2152	427872.414821432932	1652.3926265538
0	2156	428737.104124529309	1561.1111059785
0	2159	429532.770874025341	1676.707558427
0	2161	429632.951744785561	1760.5369233526
0	2165	430749.444286571837	2012.3401620425
0	2168	431205.113064078655	1672.3421900533
0	2170	431511.935768555878	1878.9840237703
0	2175	432699.698998639382	1950.2547120675
0	2177	432731.561533268569	1219.6257647127
0	2179	433506.923580681946	2301.8105166033
0	2183	434374.824292911239	1675.1252942719
0	2187	435075.420530140428	2343.8589968719
0	2188	435379.731901735109	1872.8083210532
0	2193	436338.491516606904	1963.6672236957
0	2195	436815.978683950409	1740.55815381
0	2197	437396.791934268591	2017.0600325335
0	2202	438422.267363453305	2083.7758468464
0	2204	438592.125751962915	1776.1470680125
0	2207	439112.337782979054	1715.5458487105
0	2211	439940.163332875839	1517.8959694225
0	2213	440752.757393242822	2160.6316412799
0	2215	440872.927664313508	1760.5898813345
0	2220	442078.553645778469	2138.3903129026
0	2223	442456.729814596516	1583.802150283
0	2224	442755.868060793758	2003.1106675509
0	2229	443561.149944830707	1482.5962990522
0	2230	444059.482643706765	1602.7528291102
0	2234	444623.195388587222	1867.3273277935
0	2238	445495.392020093318	1435.9093763866
0	2239	445560.9450156335	1999.7950708028
0	2245	446942.064013145894	2318.8686245587
0	2246	447188.715987978544	1693.3239678852
0	2248	447586.233562789878	2025.2885471564
0	2253	448506.459870748252	1564.3958576024
0	2254	448897.997525101569	1709.281537123
0	2259	449875.025684852174	2288.7921220623
0	2261	450180.921273445741	1674.4614026975
0	2262	450664.842179557351	1766.8446544558
0	2269	451963.016616040862	2087.9909311887
0	2270	452045.270852465213	1864.3495790195
0	2271	452172.186994319825	1507.3448147625
0	2277	453647.995973797536	1684.9793577567
0	2279	454119.218024192421	1947.0310298726
0	2281	454251.465948019207	2206.195095554
0	2286	455405.85339087995	1757.8574170824
0	2288	455746.459712460681	1627.2416882683
0	2290	456179.847029037804	1928.3810810186
0	2294	456962.614294979743	1556.7609040998
0	2297	457610.770266177177	1864.3105537165
0	2299	457944.065241096572	1764.2182120588
0	2304	459121.515159169233	2158.9008641895
0	2307	459786.419590562613	1842.354349466
0	2309	460128.08500011456	2517.3147339374
0	2311	460502.443181164583	1380.9280219954
0	2315	461635.524621745602	1849.105031183
0	2319	462378.201817721149	1875.7586365566
0	2320	462409.0813829564	2280.9963828418
0	2325	463241.058269469098	1605.5336477235
0	2326	463586.999116977698	1208.7972992565
0	2330	464503.246691264256	2094.1653083079
0	2334	465237.563723651723	1996.5054541826
0	2335	465509.062831755749	1922.0637147781
0	2339	466181.36654896666	1678.1198577024
0	2343	466808.624008996443	1571.0602853447
0	2344	466995.175191387556	1486.1123596318
0	2348	467670.833136560439	1489.4665875938
0	2352	468631.883105635674	1823.2590966392
0	2353	468828.639846341706	1833.4646549541
0	2357	469590.820684097752	1919.9875475373
0	2361	470652.353394543774	1823.7135482021
0	2362	470820.934968441756	2189.0518628061
0	2366	471544.116752827584	1953.2960687298
0	2368	472189.635886391656	1368.7009179499
0	2372	472899.019304383568	2246.6659098398
0	2376	473994.442547857793	1804.8066614661
0	2377	474015.619325079068	2471.5025722515
0	2382	475361.58853909003	2462.5692347065
0	2384	475641.475772811131	1647.0332249533
0	2387	476219.538931315809	2203.9196062367
0	2391	477181.688209343734	1540.2124365326
0	2393	477505.206119176022	2143.617580086
0	2396	477867.22140857023	1647.6824772544
0	2400	478779.477669484946	1597.7894601412
0	2403	479489.010261604584	1983.8041424286
0	2406	480342.784764803991	2475.5633562338
0	2407	480630.282633053171	1850.8049635682
0	2412	481518.969878694065	2029.9596170895
0	2413	481821.130466787189	1478.3457019832
0	2417	482801.295723533291	2171.0130904801
0	2421	483692.343489127257	2173.3736104332
0	2424	484282.336639612958	2461.2061728258
0	2425	484357.552141137455	1556.2564176042
0	2428	484980.711868777895	1288.3683796506
0	2433	486139.27724375394	1856.940604141
0	2435	486666.879033297334	2309.3268921599
0	2437	487067.748379474529	2087.0365106966
0	2442	487868.097516149327	1728.8202723954
0	2444	488204.03216639536	1136.2837869208
0	2446	488674.507208867032	2007.6281755697
0	2450	489513.407311728269	1645.3097955789
0	2453	489886.706488067308	1682.6743216719
0	2457	490608.585850987617	1934.0786421206
0	2458	490990.205313311935	1476.7980015837
0	2463	492072.839796915675	2186.1333088484
0	2465	492317.523090820793	1708.9372398332
0	2469	493168.172561377333	2177.9672480654
0	2471	493333.217552164594	1260.3777552489
0	2474	494166.723666479844	1849.2005756591
0	2478	494678.357505379292	1510.184944002
0	2479	494729.842830821896	1396.6252786573
0	2483	495388.832838228005	1222.1091717482
0	2486	496045.390684157658	1367.0331787784
0	2488	496491.027462249646	1761.1846314277
0	2493	497462.868449930134	2074.0356117021
0	2495	498122.46450204407	2077.0738178864
0	2496	498182.154538342754	1691.1270760931
0	2503	499640.265348739955	2177.3968988098
0	2504	499723.567656939897	1601.1031548958
0	2505	500054.804744152378	1872.6502058096
0	2512	501273.041582247268	1218.2368380949
0	2513	501301.917123980868	1578.349467041
0	2516	501779.347887402434	2139.0825386625
0	2521	502692.517489101764	1419.4759068545
0	2522	502858.662569336641	1556.7454453558
0	2523	503365.714252274517	1586.3663648721
0	2529	504494.406616967197	1801.8891278654
0	2530	504555.927184224176	1697.2646148875
0	2534	505537.260850891504	2171.546598617
0	2538	506209.924894524786	1653.9977103006
0	2541	506799.566538305978	2305.1599213388
0	2542	507259.933993080664	1722.6731421892
0	2546	508199.054868612486	1989.1299740877
0	2550	508760.042451834332	1960.4759135284
0	2552	509124.888351280276	1864.9543581996
0	2555	509714.778883941519	1515.724015329
0	2559	510255.015422729801	1494.9729708955
0	2560	510558.128347992931	1433.2399967127
0	2565	511463.60188401309	1748.8230000716
0	2567	511997.748445998903	1742.7330232691
0	2568	512239.193810848554	1681.0654628556
0	2573	513069.525233516518	1605.9233495034
0	2577	513679.530860390539	1681.7824143916
0	2579	514307.650446100195	2068.4566352516
0	2582	514814.45102104922	1744.9257875327
0	2586	515738.926013326307	1431.2755672261
0	2588	516029.378296388338	2349.8474359978
0	2590	516543.900122121025	1729.4491010718
0	2595	517706.467975163867	1967.5419618376
0	2597	518108.166913641642	2078.7886172533
0	2599	518327.314822515521	1783.4147003945
0	2605	519449.748513009434	1743.2805378456
0	2606	519609.525229828458	1501.3583161868
0	2608	520053.399505745668	1726.0846832301
0	2613	521084.077082807233	1634.3285697978
0	2616	521701.709500886526	2092.1842710581
0	2618	522138.52089238358	2085.1213866379
0	2620	522445.238279085641	1361.1611962784
0	2625	523330.84228285591	1629.1327819694
0	2627	523670.031397277538	1531.510504894
0	2629	523953.488013893401	1508.2497348078
0	2633	525008.733924385188	1677.8916415293
0	2637	525772.250035638038	2102.2186383605
0	2638	525823.500593192912	1870.0125792995
0	2642	526722.473074821784	1713.7391504366
0	2646	527668.968479102514	1845.4678859096
0	2647	528085.028841672514	2312.7788060345
0	2651	528556.892591435491	1834.4195166137
0	2654	529357.021740451492	1688.053261349
0	2657	529962.342446018059	1877.3136043455
0	2659	530123.42908931899	1566.5364978835
0	2663	531081.537949573286	1724.5162091218
0	2666	531760.428624926184	1798.0861789081
0	2668	532025.193829648226	1901.7647403292
0	2674	533153.611867083275	2072.07391751
0	2675	533319.304284872536	1558.8756599464
0	2677	533708.087964216276	1682.8941345681
0	2683	535118.122105579863	1964.5102384966
0	2684	535124.207523046111	1804.9032381736
0	2686	535599.983005458518	1891.8950412422
0	2691	536909.062045393551	1790.9399398137
0	2692	536994.229249237154	1870.021726191
0	2695	537638.850866211608	2038.8678607531
0	2699	538611.808386817614	1702.7463414241
0	2702	538952.58833351548	1313.7374673039
0	2704	539384.586518816699	2390.3572695795
0	2710	540295.965003361966	1684.1566165444
0	2711	540512.931912951221	1128.3453941345
0	2712	540650.776688475191	1698.1883549597
0	2719	542237.949542747851	1941.9845393859
0	2720	542384.385608928307	1733.6089204531
0	2721	542699.952064175208	2187.020151224
0	2728	543950.222294731106	1712.2727519833
0	2729	544307.005504192833	1607.0534400176
0	2730	544560.880197538092	2176.4945886098
0	2737	546101.8409497105	2151.6186549794
0	2738	546631.544632092167	2324.5391278993
0	2740	546861.669895984262	2300.7896984462
0	2746	548059.816037490994	1198.1461415067
0	2748	548432.168390695055	1800.6237586029
0	2749	548523.584814928514	2421.743865218
0	2752	549095.541243022337	1035.7252055313
0	2757	550096.496542822611	1572.9117278941
0	2760	550705.159315327231	2272.9909246322
0	2761	551001.134570315509	1905.5933272932
0	2764	551493.710277741817	1397.2137349192
0	2767	552215.563306957532	1510.4039916303
0	2771	552647.492302721395	1646.3577324059
0	2774	553219.695921102581	1725.9856433608
0	2778	554155.570796364947	1508.0784936436
0	2780	554517.635632865179	2302.0723259076
0	2782	554920.187280094293	1700.4913589917
0	2787	555819.795808056399	1664.2250116915
0	2790	556303.046039538507	1785.4104066733
0	2791	556871.678775223014	1951.4914951287
0	2795	557605.628986889526	1785.8331788331
0	2799	558610.863055894201	2307.8170163557
0	2801	559075.370658002836	2203.6918827798
0	2803	559497.903512371733	1892.2745254822
0	2808	560345.566186029513	1734.7031301353
0	2810	560891.948364023162	1816.5777060203
0	2812	561433.118454040988	1935.2149416693
0	2818	562698.026581434561	1264.9081273936
0	2819	562750.665756315035	1858.7173922919
0	2820	562875.565412733753	2529.9992267042
0	2827	564612.941508041744	1737.376095308
0	2828	564804.649119498251	2053.9833631832
0	2829	564812.525277910783	2114.4986964762
0	2836	566729.582456080286	1924.933336582
0	2837	566864.66745827352	2251.7259502318
0	2839	567137.4111672398	2324.885889329
0	2843	567888.171755243136	1158.5892991629
0	2845	568161.497809644838	1296.8303513713
0	2850	569288.559730025037	2151.1485627852
0	2852	569645.466945273845	1757.2951900307
0	2853	569830.485367309351	1668.9875576645
0	2859	571050.319016492038	1404.8520712182
0	2860	571162.548154592543	1873.9884245675
0	2863	571906.359677156483	2075.8743098471
0	2868	572724.022951768754	1673.7039352767
0	2870	573512.831518566265	2350.2833639737
0	2872	574061.102905031344	2154.7432278749
0	2876	574556.592241209043	1832.5692894403
0	2879	575394.917670730531	1882.0861521643
0	2880	575406.733886059424	1345.6309810281
0	2885	576729.656781815036	2173.064540606
0	2888	577192.534489464045	1797.6168187335
0	2890	577865.134107135286	2458.4002210759
0	2894	578483.308198023631	1753.6514162086
0	2897	579082.834859658063	1890.300370194
0	2901	579811.428838502666	1946.2947313674
0	2902	579952.937912335663	1469.629714312
0	2905	580427.667844528364	1344.8329848703
0	2910	581532.21931541343	1579.2814030778
0	2912	581958.663754910281	2147.2349164076
0	2915	582543.693668441879	2116.0258239135
0	2919	583272.212839080066	1739.9935236666
0	2920	583504.219131125187	1545.5553762149
0	2923	584117.373532382804	1573.6798639409
0	2928	585120.843230187942	1616.6240990628
0	2929	585300.110038463071	2027.897199383
0	2932	585677.83330245878	1560.459770076
0	2938	586741.657427698423	1620.8141975105
0	2939	586905.343253212082	1227.5099507533
0	2940	587033.495826507033	1733.385788044
0	2947	588356.593445967931	1614.9360182695
0	2948	588399.065341427955	1493.7220882159
0	2949	588838.600172102497	1805.1043455955
0	2956	590170.356395468164	1813.7629495002
0	2957	590201.123335165949	1362.5231630635
0	2958	590328.825170081141	1929.7598286532
0	2965	591576.530664973009	1406.1742695048
0	2966	591948.857228737371	1747.7338935714
0	2967	591980.619321065055	1651.7941509839
0	2973	593487.083282880533	1910.5526179075
0	2976	594127.596836071493	2146.9775150064
0	2977	594186.870398651855	2238.0131699145
0	2983	595511.364796338651	2024.2815134581
0	2984	595961.7734787986	1834.1766427271
0	2985	595975.967693841131	1789.0972951893
0	2992	597470.07998423654	1508.3065054379
0	2993	597843.389990832704	1867.4222969916
0	2994	597926.90171082509	2415.5369144864
0	3000	599257.541138492556	1787.461154256
0	3002	599619.503002753529	1776.1130119208
0	3003	599772.665485041265	1845.7637742162
0	3008	600832.857292844015	1575.3161543515
0	3012	601504.100068425807	1884.5970656723
0	3013	601849.108795495752	2076.4433104545
0	3017	602461.567817442153	1628.7105245981
0	3020	603267.109694983857	1763.0096265581
0	3022	603909.008319536272	2059.8995240405
0	3026	604413.001100672443	1951.4332832303
1	1311	260599.025204451774	435
1	1313	261173.011278966454	436
1	1315	261358.293408527994	437
1	1321	262699.975275015477	438
1	1322	262764.154449524382	440
1	1325	263387.901135161532	439
1	1329	264040.839888341749	442
1	1330	264491.161970095727	441
1	1335	265502.485275501398	443
1	1337	265993.534669093806	445
1	1338	266071.503115491966	444
1	1343	267435.054342588422	446
1	1346	268035.65707742239	448
1	1348	268240.959695912916	447
1	1352	269338.068928755832	449
1	1357	270139.496757555771	451
1	1358	270512.786759482721	450
1	1360	270810.018349718314	452
1	1366	272099.847756419349	453
1	1367	272507.969054952276	455
1	1368	272622.691659908767	454
1	1373	273781.353537831474	456
1	1376	274323.856072453794	457
1	1378	274518.162237899403	458
1	1382	275499.946923041735	459
1	1385	276028.557367762576	461
1	1386	276291.099722636876	460
1	1392	277176.020165439715	462
1	1394	277584.632178302867	464
1	1395	277922.90262104946	463
1	1402	278851.156704733168	465
1	1403	279105.403039790702	466
1	1404	279399.174817325573	467
1	1409	280417.95268356802	468
1	1413	281198.152714222682	469
1	1414	281269.078962877419	470
1	1417	281825.85582062604	471
1	1423	282870.537716243428	472
1	1424	283259.90459206516	474
1	1425	283324.42727568562	473
1	1432	284810.029503190902	475
1	1433	285194.659071229425	477
1	1434	285337.015949003418	476
1	1440	286311.041086725918	479
1	1442	286632.95630081558	478
1	1443	286986.798882577587	480
1	1450	288780.00263823199	481
1	1451	288787.33806330712	482
1	1452	288940.889610629548	483
1	1459	290849.164114287143	486
1	1460	290871.473312750473	485
1	1461	290984.137200191644	484
1	1468	292669.70985992813	488
1	1469	292689.95142560455	489
1	1470	292730.959132500013	487
1	1477	294627.120219077935	492
1	1478	294640.952520445016	491
1	1479	294910.807673167452	490
1	1486	296208.82114567796	493
1	1488	296739.753470476745	494
1	1490	296854.911244567498	495
1	1491	297171.657298738158	496
1	1498	298913.021028321265	497
1	1499	298963.96739780905	499
1	1500	298992.872712900877	498
1	1507	300826.57573814506	501
1	1508	300951.374711841373	500
1	1509	301012.927063414842	502
1	1514	302165.378546062879	503
1	1518	302902.883505960942	505
1	1519	303078.920361958472	504
1	1523	304189.602177031361	506
1	1526	304557.683611940608	507
1	1530	305028.289453871577	508
1	1532	305644.656279450298	510
1	1533	305726.244784053438	509
1	1539	306766.741498746001	513
1	1541	307309.696513786941	511
1	1542	307605.061758309619	512
1	1548	308472.044148948067	514
1	1550	308880.211500031902	515
1	1554	309549.278525495918	516
1	1555	309669.707504846179	517
1	1560	311055.300847347855	518
1	1562	311154.475167207435	519
1	1563	311422.428032057384	520
1	1570	312974.208283145004	523
1	1571	313061.215943517179	522
1	1572	313091.44010678868	521
1	1579	314868.447279743866	525
1	1580	314886.064018355706	524
1	1581	314952.386497333676	526
1	1587	316007.84407323228	527
1	1588	316180.478747421899	528
1	1593	316994.173023523793	529
1	1594	317292.508706543612	530
1	1598	317935.39731865751	531
1	1602	319034.643422160328	532
1	1603	319168.872133875284	533
1	1608	320261.051702499411	534
1	1610	320889.810534892634	535
1	1611	321042.339762579669	536
1	1617	322313.515414763263	537
1	1619	322629.971408564617	539
1	1621	322655.646609049321	538
1	1625	323668.166801892242	540
1	1629	324488.841445790635	542
1	1631	324702.866615680997	541
1	1632	325203.123271605021	543
1	1639	326548.143232706955	546
1	1640	326691.421717079388	544
1	1641	326909.030149457995	545
1	1648	328347.075736010468	547
1	1649	328372.854663804193	549
1	1650	328481.383228814261	548
1	1657	329830.373722314866	552
1	1658	329883.809871599099	550
1	1659	330177.997129457091	551
1	1666	331442.199312150509	553
1	1667	331585.50522630105	554
1	1669	331967.823745636289	555
1	1675	333350.425775209472	556
1	1676	333658.038896229138	557
1	1678	333868.097796477397	558
1	1684	335227.596881892551	561
1	1685	335366.602998040647	559
1	1686	335761.607415648197	560
1	1692	337008.364871051192	563
1	1694	337254.505822341908	562
1	1697	337868.195671448504	564
1	1701	338816.520567750588	565
1	1702	339041.401078831423	566
1	1706	339831.909132795428	567
1	1709	340286.018828395784	568
1	1711	340949.62803851815	569
1	1714	341583.950609201585	570
1	1719	342546.223939396472	571
1	1721	342836.613788316046	572
1	1722	343179.576254915465	573
1	1729	344557.536016870309	576
1	1730	344683.541982108759	574
1	1731	345100.114320963641	575
1	1738	346345.018507260848	577
1	1739	346414.846846461328	578
1	1742	346880.69446189331	579
1	1747	347847.643990488742	580
1	1748	348012.97086356211	581
1	1750	348473.053634259869	582
1	1756	349715.452203014885	585
1	1757	349883.308776514624	583
1	1758	349908.398073446039	584
1	1765	351333.670041337629	586
1	1766	351334.972964460049	587
1	1767	351612.309330794994	588
1	1773	352880.687714181861	589
1	1775	353056.701072072629	590
1	1778	353657.694917544757	591
1	1781	354009.024393791352	593
1	1783	354303.940516943133	592
1	1787	355206.571835931426	594
1	1791	355871.686470927691	596
1	1793	356544.622713234294	595
1	1795	357128.040954563803	597
1	1800	357900.061008380746	598
1	1802	358395.956680225227	599
1	1805	358886.482775257936	600
1	1810	359944.012770568971	602
1	1811	360142.942538671216	601
1	1812	360629.769976297429	603
1	1819	361893.469625758042	606
1	1821	362343.631178000962	605
1	1822	362389.698932692428	604
1	1826	363101.289997994934	607
1	1830	364115.743156615665	609
1	1831	364255.010324902853	608
1	1837	365487.89912341166	610
1	1838	365783.311862591674	612
1	1840	366054.845627211056	611
1	1844	366827.77529843155	613
1	1847	367259.96171082372	614
1	1849	367739.138854388169	615
1	1854	368854.692634195124	616
1	1856	369325.055659655503	618
1	1858	369414.533841982504	617
1	1864	370652.724644495196	620
1	1865	370697.360892640462	619
1	1868	371345.246400218477	621
1	1871	372165.454259701109	623
1	1873	372261.736764991678	622
1	1879	373586.627005320078	625
1	1880	373694.889811612686	624
1	1881	373711.62836160513	626
1	1888	375300.819768570399	627
1	1889	375341.845976002534	628
1	1890	375698.949654260673	629
1	1896	376801.650331215968	630
1	1898	377043.997152429094	631
1	1900	377348.644169373461	632
1	1906	378598.963541071897	633
1	1907	378706.031843740513	634
1	1909	378941.535278689139	635
1	1915	380033.690435858479	636
1	1916	380525.974635640182	638
1	1918	380720.16958440656	637
1	1921	381547.004004847294	639
1	1926	382860.094783594855	640
1	1929	383186.974925827254	641
1	1931	383800.191487977317	642
1	1933	384110.535843344429	643
1	1937	384943.426403543	644
1	1941	385766.275701206214	645
1	1942	386103.887666109973	646
1	1947	386941.23132540848	648
1	1949	387382.79094658794	647
1	1951	387588.30356667752	649
1	1956	388524.541961448304	650
1	1958	389008.754089800661	651
1	1961	389577.938698371896	652
1	1966	390564.408802567087	653
1	1967	390573.005271703025	654
1	1968	390701.90804000015	655
1	1974	391818.799100071212	657
1	1976	392234.971685288512	656
1	1977	392452.824653685118	658
1	1984	394024.059324665015	659
1	1985	394232.198757352346	660
1	1986	394381.743894657145	661
1	1992	395729.276782041436	662
1	1994	396057.893616892423	664
1	1997	396607.196140056514	663
1	2002	397770.807622605973	667
1	2003	397898.213121481261	665
1	2004	398152.056708047192	666
1	2011	399475.807720469333	669
1	2012	399660.979713778968	670
1	2013	399802.159686572888	668
1	2020	401301.410706667254	672
1	2021	401512.467087898425	671
1	2022	401611.599440407047	673
1	2028	402770.113946450899	674
1	2030	403148.587291035823	675
1	2032	403470.943062007467	676
1	2036	404162.611857382606	677
1	2040	404895.195281552173	678
1	2041	405369.07225716863	679
1	2045	406112.058795103828	680
1	2048	406808.522698469482	681
1	2051	407403.856927435884	682
1	2055	408186.403561430077	683
1	2058	408735.407530702673	684
1	2059	409027.854078495914	685
1	2064	409847.232703305806	686
1	2066	410116.010538255819	687
1	2068	410506.05377582837	688
1	2072	411457.726391684289	689
1	2076	412241.630784049653	690
1	2077	412339.973639091515	691
1	2080	412775.096274213891	692
1	2085	413707.8197862022	694
1	2087	414430.945493979402	693
1	2089	414774.662686558467	695
1	2094	416135.334979696238	696
1	2096	416357.746025780238	697
1	2097	416691.907613491666	698
1	2103	418224.488570541165	700
1	2105	418480.826457124242	699
1	2106	418585.376573307467	701
1	2112	420052.528100833319	702
1	2114	420377.834899490727	704
1	2115	420402.763881627509	703
1	2122	421784.714614832796	705
1	2123	422006.019840622349	706
1	2125	422399.495612550566	707
1	2131	423688.112713303439	708
1	2132	424112.524507055099	710
1	2133	424251.291282428457	709
1	2139	425468.05514409209	711
1	2140	425630.085303448181	712
1	2143	426220.022194879158	713
1	2147	427175.99301855082	714
1	2150	427856.063315598335	715
1	2152	427872.414821432932	716
1	2156	428737.104124529309	717
1	2159	429532.770874025341	718
1	2161	429632.951744785561	719
1	2165	430749.444286571837	720
1	2168	431205.113064078655	721
1	2170	431511.935768555878	722
1	2175	432699.698998639382	723
1	2177	432731.561533268569	725
1	2179	433506.923580681946	724
1	2183	434374.824292911239	726
1	2187	435075.420530140428	727
1	2188	435379.731901735109	728
1	2193	436338.491516606904	729
1	2195	436815.978683950409	730
1	2197	437396.791934268591	731
1	2202	438422.267363453305	732
1	2204	438592.125751962915	733
1	2207	439112.337782979054	734
1	2211	439940.163332875839	735
1	2213	440752.757393242822	736
1	2215	440872.927664313508	737
1	2220	442078.553645778469	738
1	2223	442456.729814596516	740
1	2224	442755.868060793758	739
1	2229	443561.149944830707	741
1	2230	444059.482643706765	742
1	2234	444623.195388587222	743
1	2238	445495.392020093318	745
1	2239	445560.9450156335	744
1	2245	446942.064013145894	746
1	2246	447188.715987978544	747
1	2248	447586.233562789878	748
1	2253	448506.459870748252	749
1	2254	448897.997525101569	750
1	2259	449875.025684852174	751
1	2261	450180.921273445741	752
1	2262	450664.842179557351	753
1	2269	451963.016616040862	754
1	2270	452045.270852465213	755
1	2271	452172.186994319825	756
1	2277	453647.995973797536	757
1	2279	454119.218024192421	759
1	2281	454251.465948019207	758
1	2286	455405.85339087995	760
1	2288	455746.459712460681	761
1	2290	456179.847029037804	762
1	2294	456962.614294979743	763
1	2297	457610.770266177177	764
1	2299	457944.065241096572	765
1	2304	459121.515159169233	766
1	2307	459786.419590562613	768
1	2309	460128.08500011456	767
1	2311	460502.443181164583	769
1	2315	461635.524621745602	770
1	2319	462378.201817721149	772
1	2320	462409.0813829564	771
1	2325	463241.058269469098	773
1	2326	463586.999116977698	774
1	2330	464503.246691264256	775
1	2334	465237.563723651723	776
1	2335	465509.062831755749	777
1	2339	466181.36654896666	778
1	2343	466808.624008996443	779
1	2344	466995.175191387556	780
1	2348	467670.833136560439	781
1	2352	468631.883105635674	782
1	2353	468828.639846341706	783
1	2357	469590.820684097752	784
1	2361	470652.353394543774	786
1	2362	470820.934968441756	785
1	2366	471544.116752827584	787
1	2368	472189.635886391656	789
1	2372	472899.019304383568	788
1	2376	473994.442547857793	791
1	2377	474015.619325079068	790
1	2382	475361.58853909003	792
1	2384	475641.475772811131	793
1	2387	476219.538931315809	794
1	2391	477181.688209343734	796
1	2393	477505.206119176022	795
1	2396	477867.22140857023	797
1	2400	478779.477669484946	798
1	2403	479489.010261604584	799
1	2406	480342.784764803991	800
1	2407	480630.282633053171	801
1	2412	481518.969878694065	802
1	2413	481821.130466787189	803
1	2417	482801.295723533291	804
1	2421	483692.343489127257	805
1	2424	484282.336639612958	806
1	2425	484357.552141137455	807
1	2428	484980.711868777895	808
1	2433	486139.27724375394	809
1	2435	486666.879033297334	810
1	2437	487067.748379474529	811
1	2442	487868.097516149327	812
1	2444	488204.03216639536	814
1	2446	488674.507208867032	813
1	2450	489513.407311728269	815
1	2453	489886.706488067308	816
1	2457	490608.585850987617	817
1	2458	490990.205313311935	818
1	2463	492072.839796915675	819
1	2465	492317.523090820793	820
1	2469	493168.172561377333	821
1	2471	493333.217552164594	822
1	2474	494166.723666479844	823
1	2478	494678.357505379292	824
1	2479	494729.842830821896	825
1	2483	495388.832838228005	826
1	2486	496045.390684157658	827
1	2488	496491.027462249646	828
1	2493	497462.868449930134	829
1	2495	498122.46450204407	830
1	2496	498182.154538342754	831
1	2503	499640.265348739955	832
1	2504	499723.567656939897	833
1	2505	500054.804744152378	834
1	2512	501273.041582247268	837
1	2513	501301.917123980868	836
1	2516	501779.347887402434	835
1	2521	502692.517489101764	838
1	2522	502858.662569336641	839
1	2523	503365.714252274517	840
1	2529	504494.406616967197	841
1	2530	504555.927184224176	842
1	2534	505537.260850891504	843
1	2538	506209.924894524786	845
1	2541	506799.566538305978	844
1	2542	507259.933993080664	846
1	2546	508199.054868612486	847
1	2550	508760.042451834332	848
1	2552	509124.888351280276	849
1	2555	509714.778883941519	850
1	2559	510255.015422729801	851
1	2560	510558.128347992931	852
1	2565	511463.60188401309	853
1	2567	511997.748445998903	854
1	2568	512239.193810848554	855
1	2573	513069.525233516518	856
1	2577	513679.530860390539	857
1	2579	514307.650446100195	858
1	2582	514814.45102104922	859
1	2586	515738.926013326307	861
1	2588	516029.378296388338	860
1	2590	516543.900122121025	862
1	2595	517706.467975163867	863
1	2597	518108.166913641642	864
1	2599	518327.314822515521	865
1	2605	519449.748513009434	866
1	2606	519609.525229828458	867
1	2608	520053.399505745668	868
1	2613	521084.077082807233	869
1	2616	521701.709500886526	870
1	2618	522138.52089238358	871
1	2620	522445.238279085641	872
1	2625	523330.84228285591	873
1	2627	523670.031397277538	874
1	2629	523953.488013893401	875
1	2633	525008.733924385188	876
1	2637	525772.250035638038	877
1	2638	525823.500593192912	878
1	2642	526722.473074821784	879
1	2646	527668.968479102514	881
1	2647	528085.028841672514	880
1	2651	528556.892591435491	882
1	2654	529357.021740451492	883
1	2657	529962.342446018059	884
1	2659	530123.42908931899	885
1	2663	531081.537949573286	886
1	2666	531760.428624926184	887
1	2668	532025.193829648226	888
1	2674	533153.611867083275	889
1	2675	533319.304284872536	890
1	2677	533708.087964216276	891
1	2683	535118.122105579863	892
1	2684	535124.207523046111	893
1	2686	535599.983005458518	894
1	2691	536909.062045393551	895
1	2692	536994.229249237154	896
1	2695	537638.850866211608	897
1	2699	538611.808386817614	898
1	2702	538952.58833351548	900
1	2704	539384.586518816699	899
1	2710	540295.965003361966	901
1	2711	540512.931912951221	903
1	2712	540650.776688475191	902
1	2719	542237.949542747851	904
1	2720	542384.385608928307	906
1	2721	542699.952064175208	905
1	2728	543950.222294731106	907
1	2729	544307.005504192833	909
1	2730	544560.880197538092	908
1	2737	546101.8409497105	910
1	2738	546631.544632092167	911
1	2740	546861.669895984262	912
1	2746	548059.816037490994	915
1	2748	548432.168390695055	914
1	2749	548523.584814928514	913
1	2752	549095.541243022337	916
1	2757	550096.496542822611	918
1	2760	550705.159315327231	917
1	2761	551001.134570315509	919
1	2764	551493.710277741817	920
1	2767	552215.563306957532	921
1	2771	552647.492302721395	922
1	2774	553219.695921102581	923
1	2778	554155.570796364947	925
1	2780	554517.635632865179	924
1	2782	554920.187280094293	926
1	2787	555819.795808056399	927
1	2790	556303.046039538507	928
1	2791	556871.678775223014	929
1	2795	557605.628986889526	930
1	2799	558610.863055894201	931
1	2801	559075.370658002836	932
1	2803	559497.903512371733	933
1	2808	560345.566186029513	934
1	2810	560891.948364023162	935
1	2812	561433.118454040988	936
1	2818	562698.026581434561	939
1	2819	562750.665756315035	938
1	2820	562875.565412733753	937
1	2827	564612.941508041744	942
1	2828	564804.649119498251	941
1	2829	564812.525277910783	940
1	2836	566729.582456080286	944
1	2837	566864.66745827352	943
1	2839	567137.4111672398	945
1	2843	567888.171755243136	946
1	2845	568161.497809644838	947
1	2850	569288.559730025037	948
1	2852	569645.466945273845	949
1	2853	569830.485367309351	950
1	2859	571050.319016492038	952
1	2860	571162.548154592543	951
1	2863	571906.359677156483	953
1	2868	572724.022951768754	954
1	2870	573512.831518566265	955
1	2872	574061.102905031344	956
1	2876	574556.592241209043	957
1	2879	575394.917670730531	958
1	2880	575406.733886059424	959
1	2885	576729.656781815036	960
1	2888	577192.534489464045	961
1	2890	577865.134107135286	962
1	2894	578483.308198023631	963
1	2897	579082.834859658063	964
1	2901	579811.428838502666	965
1	2902	579952.937912335663	966
1	2905	580427.667844528364	967
1	2910	581532.21931541343	969
1	2912	581958.663754910281	968
1	2915	582543.693668441879	970
1	2919	583272.212839080066	971
1	2920	583504.219131125187	972
1	2923	584117.373532382804	973
1	2928	585120.843230187942	975
1	2929	585300.110038463071	974
1	2932	585677.83330245878	976
1	2938	586741.657427698423	977
1	2939	586905.343253212082	979
1	2940	587033.495826507033	978
1	2947	588356.593445967931	980
1	2948	588399.065341427955	981
1	2949	588838.600172102497	982
1	2956	590170.356395468164	983
1	2957	590201.123335165949	985
1	2958	590328.825170081141	984
1	2965	591576.530664973009	986
1	2966	591948.857228737371	987
1	2967	591980.619321065055	988
1	2973	593487.083282880533	989
1	2976	594127.596836071493	991
1	2977	594186.870398651855	990
1	2983	595511.364796338651	992
1	2984	595961.7734787986	993
1	2985	595975.967693841131	994
1	2992	597470.07998423654	996
1	2993	597843.389990832704	997
1	2994	597926.90171082509	995
1	3000	599257.541138492556	998
1	3002	599619.503002753529	999
1	3003	599772.665485041265	1000
1	3008	600832.857292844015	1001
1	3012	601504.100068425807	1002
1	3013	601849.108795495752	1003
1	3017	602461.567817442153	1004
1	3020	603267.109694983857	1005
1	3022	603909.008319536272	1006
1	3026	604413.001100672443	1007

