version 2
run Pipelined_3Teachers-42-20190105-10:57:27-22236
attr configname Pipelined_3Teachers
attr datetime 20190105-10:57:27
attr experiment Pipelined_3Teachers
attr inifile ../simulations/omnetpp.ini
attr iterationvars "$0=\"uniform\""
attr iterationvarsf uniform-
attr measurement "$0=\"uniform\""
attr network PipelinedExamSession
attr processid 22236
attr repetition 42
attr replication #42
attr resultdir results
attr runnumber 42
attr seedset 42
param **.teachersNumber 3
param **.answerTimeDistribution "\"uniform\""
param **.minUniform 300
param **.maxUniform 900
param **.scaleLognormal 6.2854
param **.shapeLognormal 0.4724

vector 0 PipelinedExamSession examinationTime:vector ETV
attr source examFinished
vector 1 PipelinedExamSession studentID:vector ETV
attr source student
0	3147	260345.304699987191	2273.1444996782
0	3156	260926.520595839265	2104.6134137549
0	3165	261436.05601955207	1732.2001995519
0	3172	261769.881319301221	1263.0282750819
0	3183	263053.651050198841	1997.9063048959
0	3192	263953.481655009109	2433.6926666088
0	3203	264872.24456509577	2533.6221533362
0	3210	265633.637011516857	2507.2739944328
0	3219	266493.352718884143	2469.0076029394
0	3226	266941.761581087503	2069.5170159917
0	3237	267542.246113903839	1803.1421137042
0	3248	268442.514993343521	1893.6225591693
0	3253	268866.851582145337	1747.6326658856
0	3264	269972.467800322939	2402.3834246211
0	3271	270300.605679536257	1858.0906861927
0	3282	270852.984917443264	1583.537526615
0	3291	271840.387533511985	1816.7406651657
0	3300	272603.778567770515	2065.2340660337
0	3307	273088.444910198469	1846.9564898405
0	3316	274073.471471434479	2219.7984325234
0	3325	274453.412546217461	1800.9166153148
0	3336	275661.769513227065	2197.9646842461
0	3345	276249.797097500433	1905.2080102265
0	3354	277129.958608048056	1959.3773586676
0	3361	277813.575420901199	1989.020631602
0	3372	278358.482508687323	1981.6062524915
0	3379	279028.840740211329	1881.1635278631
0	3388	280171.224815631306	2240.5208023265
0	3401	280996.809485368451	2224.2148366291
0	3408	281559.294441808036	1898.4221594408
0	3419	282575.142921181416	2249.4179293513
0	3426	283183.536613360068	2186.7271279916
0	3437	284191.617495194098	2352.3127921857
0	3444	284864.869516063502	2289.7265948821
0	3451	285727.620840724578	2382.2861127555
0	3460	286175.162875419504	1983.5453802254
0	3473	287539.955514622874	2530.9197947849
0	3480	287994.902151078008	2116.1540600471
0	3487	288442.953727394364	1708.253061818
0	3496	289383.491238160081	1843.5357235372
0	3505	289926.185956690482	1810.7489853166
0	3516	290603.781890356935	1600.3253764473
0	3525	291226.139941765017	1714.2353842501
0	3532	291649.781997967533	1457.8369290568
0	3541	292204.276406765006	1507.3934105225
0	3554	293326.939549623079	2053.9850554895
0	3563	294044.840428233168	2121.0262691136
0	3572	294882.913470547668	2240.4987679794
0	3577	295492.055104114137	2165.1155544911
0	3586	296170.171606075041	2125.3311778419
0	3595	296616.462539322696	1733.549068775
0	3604	297622.376345051475	1855.5966613814
0	3617	298196.741042984672	1768.8001189381
0	3622	298549.962563579925	1328.9472553879
0	3631	299189.776663994439	1461.7117779795
0	3640	299763.365350384288	1566.6243073996
0	3649	300298.248444171646	1472.2782155033
0	3662	301451.264452748024	2048.8269637339
0	3667	301806.638804404088	1567.6709574647
0	3678	302716.691922303313	1875.6737125106
0	3685	303323.686129739532	1872.4216769915
0	3696	304190.291575854668	1959.3808825593
0	3703	304491.848591482291	1548.2670653611
0	3716	305898.801713436866	2131.0730095021
0	3723	306557.168562244648	2263.0682773422
0	3730	307216.165506234417	2101.0845602956
0	3743	308167.264230921888	2268.462517485
0	3750	308838.21709393526	2047.6611812599
0	3757	309456.976546067768	2044.4662455004
0	3770	310404.029676318192	2236.7654453963
0	3777	310792.673133965605	1869.4356555585
0	3784	311520.682883262658	1865.1357712224
0	3797	312499.280350701906	2095.2506743837
0	3806	313118.548443680652	2263.0565981381
0	3815	313938.87743270027	2246.2614863645
0	3824	314558.44779107722	2059.1674403753
0	3829	314921.369294123748	1802.8208504431
0	3842	315827.261413726979	1888.3839810267
0	3849	316465.640468336665	1907.1926772594
0	3858	317058.556211181009	1757.6652950607
0	3869	317749.387160874927	1922.1257471479
0	3878	318583.703530021036	1952.0161234774
0	3885	319168.085495196307	2039.8996762466
0	3894	319941.588235739643	2192.2010748647
0	3903	320529.337498778502	1945.6339687575
0	3910	321253.242236003304	1962.0773156639
0	3919	321917.728338902841	1937.2697154991
0	3930	322583.988785091813	1953.0104728416
0	3937	323111.252360651295	1738.1805628538
0	3946	323779.328080918665	1658.9926002547
0	3957	324613.562187133382	1854.5515799895
0	3964	325127.220223657812	1865.7415172551
0	3973	326133.852362539645	2032.5852180831
0	3986	326938.194447336745	2194.4603210315
0	3993	327373.394128074896	1737.7508522943
0	4002	327904.983176663545	1409.1248043347
0	4013	328715.473690582466	1777.2792432457
0	4020	329186.530792247531	1729.1222535074
0	4027	329519.922885065925	1469.8284644634
0	4036	330652.521298080709	1937.0476074982
0	4045	331262.704207375673	1763.7115814723
0	4056	332559.362755855572	2222.3108758684
0	4067	333397.328912559923	2445.5701963976
0	4076	334279.011172195923	2609.0755824465
0	4081	334582.191174337667	2013.902261015
0	4092	335618.793168012079	2221.4642554522
0	4099	336352.530823694568	2073.5196514986
0	4112	337408.643219992545	2244.5917482488
0	4119	338029.665258061167	2271.1645154748
0	4126	338497.652713023152	1946.6350866482
0	4135	339236.353128869113	1827.7099088766
0	4144	340229.764349525821	2178.1535170041
0	4153	340710.522829508436	1855.7624635287
0	4164	341649.322444852468	1913.7656369247
0	4171	342373.66049950945	1911.5322057623
0	4182	343055.626657744896	1851.7500522081
0	4191	343834.853630187016	2013.0730097182
0	4200	344679.083920503061	2096.6355986428
0	4211	345366.283377259996	2135.0921242498
0	4218	345868.245944520485	1777.846084116
0	4227	346497.407815558862	1787.4542968813
0	4238	347462.173488037687	2095.8901107777
0	4245	348172.916414123055	2234.0722509194
0	4252	348625.700806360718	2057.5034583919
0	4261	349258.6263265461	1796.4528385084
0	4270	349984.400669764754	1736.3025144674
0	4281	350959.743347950306	2002.7435587719
0	4290	351582.930859504295	1869.7943526786
0	4301	352741.763853840557	2444.727626536
0	4310	353620.779999950928	2547.1701039467
0	4317	354480.542839737636	2549.2154587526
0	4328	355378.341957321418	2636.5781034809
0	4335	355905.879108281834	2285.0991083309
0	4346	356978.883995488313	2463.5463124607
0	4351	357307.740781875354	1929.3988245539
0	4360	358131.656111078364	1897.4445029162
0	4371	359311.442801775437	2332.5588062871
0	4378	359758.661640202653	1974.6803778224
0	4387	360170.870543830123	1590.1247513015
0	4396	361296.081060078023	1935.6129859574
0	4409	362402.851446345476	2247.3037666641
0	4418	363229.171769879786	2284.8792585544
0	4425	363938.961006654454	2314.4133576192
0	4432	364502.441949443919	2099.5905030984
0	4443	365385.098557407064	2155.9267875273
0	4450	365902.688556583625	1883.5571240634
0	4459	366733.674270194051	1986.2733654678
0	4468	367256.246843375293	1834.3850095756
0	4479	368191.553233098266	2021.1257700808
0	4488	368901.910170447109	2084.9909459241
0	4495	369557.076951535446	1900.4129847977
0	4504	370115.51013048741	1839.731678227
0	4513	371157.793258829071	2038.1315400358
0	4524	371897.376639582245	2103.1721231528
0	4531	372297.415094682975	1639.3113048747
0	4544	373611.884961649804	2215.4516887385
0	4551	374356.761508388473	2244.0976704005
0	4560	375129.919831082253	2190.0785246864
0	4569	375881.361705064802	2269.476743415
0	4576	376520.117843057988	2071.8973333016
0	4587	377203.268931247322	1856.4328487031
0	4594	377902.828090265422	1831.8037281744
0	4603	378614.758379012375	1776.5908531845
0	4614	379276.399713708117	2015.505434107
0	4625	380259.072065586253	2240.7025754917
0	4634	381066.943439003109	2222.5145665929
0	4643	381729.318163124873	2092.1349096112
0	4652	382507.695384090795	2248.6233185045
0	4661	383099.509876174881	2032.5664371718
0	4668	383832.861415296822	2103.5432521719
0	4675	384140.183259453654	1632.4878753629
0	4688	385238.073749793723	2138.5638736188
0	4697	385967.781197000325	2105.1421340089
0	4704	386475.198789965391	1927.8711457271
0	4713	387350.64366669397	2112.5699169002
0	4720	388000.678743235796	2032.8975462355
0	4731	388703.59979965727	1939.739304129
0	4742	389571.969802491396	1963.0389704369
0	4751	390419.081248668983	2269.639567472
0	4758	391022.614459600329	2295.9692955483
0	4767	391539.563111169293	1967.5933086779
0	4776	392644.885487342283	2225.8042386733
0	4783	393042.20970897007	1956.255916832
0	4792	394250.122914975539	2428.5117741209
0	4801	394699.445615848556	2018.5635044239
0	4810	395467.975809238881	1935.8433854766
0	4821	396280.409475741938	1894.7774201632
0	4828	396834.887881111384	1724.9126468785
0	4837	397641.166988108337	1768.4437531047
0	4848	398938.223693612992	2401.4714275952
0	4855	399311.910162214219	2033.2913513761
0	4868	400318.099073600054	2178.8600566797
0	4875	400729.891601158336	1744.240865903
0	4886	401973.098677396805	2545.9043252282
0	4893	402459.965236438469	2141.8661628384
0	4900	403114.730496145816	1994.1369501874
0	4911	403651.386557891995	1678.2878804952
0	4920	404496.806287765534	1912.4047740363
0	4931	405550.073947431551	2300.9357972536
0	4938	406050.17345105301	2054.4855084736
0	4945	406637.677916698189	1860.2779058274
0	4956	407758.999416790935	2208.9254693594
0	4965	408338.419489469412	2249.4443235453
0	4974	409091.865119989994	2184.7790703177
0	4985	409744.106057798523	1983.243869897
0	4992	410315.569764934513	1966.2053898443
0	4999	410764.505632733959	1564.0684210695
0	5012	411837.355575850266	2093.2495180517
0	5017	412157.683070702511	1565.927332174
0	5026	412841.67581512596	1603.3409030177
0	5035	413801.168433576854	1963.8128577266
0	5044	414194.475552812251	1508.2124345005
0	5055	415441.14575344141	1986.5852092858
0	5066	416594.008520990642	2460.0894021336
0	5073	417228.391743125426	2396.3502005674
0	5080	417761.597536504301	2044.2312065978
0	5089	418719.190010055932	2125.1814890653
0	5102	419445.500842714714	2035.1131084375
0	5107	419983.891712687941	1675.3794242162
0	5116	420427.517543407189	1517.6882478409
0	5127	421543.941903300615	2098.4410605859
0	5136	422029.661434516342	1834.1843083967
0	5143	422556.297004781695	1521.9873040449
0	5154	423731.077961158039	2115.8291601576
0	5161	424207.504765223743	1917.2703699209
0	5170	425045.054268417912	1952.8809855692
0	5183	425745.269711315664	2000.6242637057
0	5188	426285.727547993916	1775.7655317429
0	5201	427140.267677838015	2013.7170234695
0	5206	427549.424554640459	1804.1548433248
0	5215	428302.641071146386	1921.5871637687
0	5224	429233.272377960417	2093.0047001224
0	5237	430125.913375429841	2168.5743214097
0	5244	430671.153878280925	1846.1455495097
0	5253	431558.51274202581	2270.1233003754
0	5262	432439.819890819522	2313.9065153897
0	5271	432984.610588895189	2078.2473506872
0	5278	433594.649667525696	1884.4131125137
0	5287	434017.779108602586	1487.3462996911
0	5296	434528.930561570483	1367.464193143
0	5305	435182.963051553848	1569.1635454539
0	5314	436022.757445927743	1705.8222922962
0	5325	437079.594808397847	2105.6302664336
0	5332	437678.543172217938	1924.6289796196
0	5341	438658.018923690575	2071.6284419876
0	5350	439577.403641911257	2258.5253018886
0	5363	440511.148985149372	2409.0816655196
0	5372	441212.000067019868	2376.5725891571
0	5381	441755.835452489588	2122.2760587931
0	5390	442593.636945309151	2082.4879601598
0	5397	443273.58141113076	2061.5813441109
0	5406	443759.911464666981	2004.0760121774
0	5409	444133.577599749002	1539.9406544399
0	5424	445619.747951813075	2284.5682395156
0	5431	446342.1156312805	2198.0590590276
0	5444	447292.518892558325	2322.5958748721
0	5451	447794.038407085497	2138.360049203
0	5460	448615.398737322572	2113.3459809702
0	5467	449062.297130702097	1769.7782381438
0	5480	450214.642309863154	2127.0590159576
0	5489	450978.943025646765	2237.182763312
0	5496	451540.618939418379	2000.4659732804
0	5503	451972.325250506434	1757.6829406433
0	5514	453438.475674251128	2459.5326486044
0	5521	453807.018428156186	2011.434589047
0	5530	454680.092155700583	1999.7799573932
0	5541	455688.618855318089	2240.4513912275
0	5548	456243.746958067675	1974.4987097103
0	5557	456861.337972199579	1700.869336864
0	5566	457901.241506869009	1960.8597144485
0	5579	458497.877940349316	1966.6291253641
0	5584	458881.49158484306	1605.2306046244
0	5595	459851.858440088143	1856.2899506651
0	5602	460467.272548936342	1969.394608587
0	5611	461307.218073774164	2008.3819918334
0	5620	462050.765492068639	1861.288101878
0	5631	463206.107383361122	2176.2866092846
0	5642	464023.25291158635	2283.5218231659
0	5647	464363.558149198106	1775.2477768343
0	5658	465257.25399618972	1879.9109681044
0	5669	466185.726345609909	2162.4734340236
0	5674	466492.323843436351	1836.564129917
0	5683	467026.068006455934	1572.4632104393
0	5692	467853.970551397687	1668.2442057878
0	5701	468518.63491334956	1948.8974422216
0	5714	469527.940249023995	2118.1915906258
0	5719	470171.916873101181	2022.857466666
0	5728	470882.066743914074	2053.148500761
0	5741	471669.017359754107	2141.0771107301
0	5746	471997.196942567862	1620.6095280591
0	5759	472943.963686516545	2024.7473699972
0	5764	473293.642889382354	1624.6255296282
0	5777	474368.44650590796	2187.1063208207
0	5784	474902.023873385079	1958.0601868685
0	5791	475464.339911006428	1858.4849618375
0	5802	476751.429646136276	2382.9831402283
0	5811	477417.672444786913	2246.9785443507
0	5820	478208.136141719333	2188.1340377033
0	5831	479193.160759890489	2440.2389368974
0	5840	479932.70401661288	2310.1981145795
0	5847	480394.650753401257	2073.9421544597
0	5856	481013.968113251068	1820.8073533606
0	5865	482018.574238289185	2085.8702216763
0	5872	482619.320897385516	2062.7112126444
0	5881	483072.410144051575	1858.7537043728
0	5894	484331.189789716193	2309.6886404324
0	5901	484837.820029724428	1943.1770918425
0	5912	485579.027138231361	2010.3846721351
0	5921	486301.982468878889	1970.7926791627
0	5928	486862.878871243486	2020.7649871241
0	5935	487208.438914082983	1629.4117758516
0	5946	488004.100111965128	1702.1176430862
0	5957	489266.690283268729	2388.8989044819
0	5966	489920.828683069015	2251.5759137459
0	5973	490409.586617304051	2023.5159682576
0	5982	491555.674978299106	2288.9846950304
0	5991	492329.683111561502	2408.8544284925
0	6000	492897.286576079244	2191.9997423887
0	6007	493249.30970231075	1666.7635955382
0	6020	494764.138894435058	2311.4503771998
0	6025	495447.508526220957	2382.03960713
0	6034	496214.830420911352	2274.4590278249
0	6043	496945.78046752144	2181.6415730864
0	6052	497620.684462180401	2072.6088796277
0	6063	498452.537588216404	2170.0000106357
0	6074	499621.407879469957	2450.5242219195
0	6083	500323.358361516189	2310.4564161971
0	6090	501046.703463653144	2317.896392243
0	6101	502078.119449503761	2456.7115700338
0	6108	502718.886588513892	2395.5282269977
0	6119	503415.125344740269	2236.6179964039
0	6126	504133.57750461441	2055.4580551106
0	6135	504549.136919667986	1621.7244895175
0	6142	505431.771867256653	2016.6465225164
0	6155	506652.142263483299	2498.4027163591
0	6164	507469.367857882796	2460.9905919526
0	6171	508042.454067757396	2167.5169088412
0	6182	508880.177886318459	2228.0356228352
0	6191	509570.278295734941	2100.9104378521
0	6198	510008.283595880537	1925.4549924284
0	6207	510596.920727519362	1716.7428412009
0	6218	511755.456887930676	2185.1785921957
0	6225	512320.076185232073	2113.3915720973
0	6232	512659.289988689169	1621.6063644737
0	6245	513761.877341615082	2006.4204536844
0	6254	514536.311241472186	2045.9942893591
0	6263	515279.024700494529	2145.2510932926
0	6272	516110.611349623696	2348.7340080086
0	6281	516936.610576836438	2400.2993353643
0	6286	517251.25104677868	1972.2263462842
0	6299	518652.874686056794	2542.2633364331
0	6308	519477.69569191155	2541.0851150751
0	6313	520008.074024040298	2249.4041260332
0	6324	521116.519579757051	2463.6448937003
0	6331	521545.5880387221	2067.8923468105
0	6344	522331.820057379129	1990.6837461982
0	6349	522654.378123208928	1414.4813449122
0	6360	523596.192130912142	1845.8682609256
0	6367	524206.963880499872	1875.1438231207
0	6378	525043.888180190744	2124.1427499801
0	6385	525686.884134169714	1942.9324334487
0	6398	526541.122746141673	1906.7209637258
0	6403	526843.130565108777	1658.0687115435
0	6416	527634.2825012282	1835.7091333251
0	6425	528445.975595293613	1904.8528491519
0	6432	528886.140247341292	1764.6310411859
0	6439	529352.499636774929	1718.2171355467
0	6452	530838.277611415879	2392.3020161223
0	6457	531203.958170861052	2104.5174545143
0	6470	532081.04406832722	2135.3998923674
0	6479	532954.893486248376	2116.6158748325
0	6488	533726.700497651519	2353.4448015969
0	6495	534379.833036940591	2298.7889686134
0	6502	535443.569787405477	2488.6763011571
0	6513	536143.417085101874	2416.7165874504
0	6522	536993.219228507997	2377.1204249002
0	6531	537739.230918651493	2256.2929025386
0	6538	538178.233941318514	1853.0615435913
0	6551	539781.719026621477	2563.0356836133
0	6558	540446.361102629499	2332.9765815753
0	6565	540818.564360635401	1839.5407761913
0	6574	541314.188570017042	1532.4695433956
0	6583	541772.837317083077	1192.7327795885
0	6594	543191.07363335793	2172.5672077853
0	6605	543971.535445936072	2422.5746511016
0	6614	544852.997025009293	2429.6740723774
0	6619	545463.95324198534	2244.9068702292
0	6632	546408.30616140743	2436.7707154714
0	6637	546864.446184039165	2011.4491590299
0	6650	547772.397998487625	2062.7496059518
0	6659	548670.199465518866	2261.8933041114
0	6668	549459.699342772413	2442.2444298863
0	6675	550133.461773209322	2361.0637747217
0	6684	550830.606962274808	2160.4074967559
0	6695	551701.139127323452	2241.439784551
0	6700	552056.031227856923	1847.6089211181
0	6713	553062.317505944568	2198.1312411837
0	6718	553440.026460355196	1738.8873330317
0	6727	554222.192348912406	1694.5767046418
0	6738	555524.159042816656	2461.8415368721
0	6745	556052.097715996253	2156.5313612111
0	6756	557044.135011266965	2275.1777580008
0	6763	557512.969585927251	1958.3026881795
0	6774	558129.950755974325	1716.330164345
0	6783	558873.100959509658	1718.3527741581
0	6792	559470.626401668461	1770.8062863909
0	6803	560347.899584798189	2192.2272013966
0	6810	561057.85484067169	2168.1303887162
0	6819	561952.740039629908	2443.4540740214
0	6826	562549.827952869283	2201.9283680711
0	6835	563193.311059288728	2008.7235124782
0	6848	564463.772269198719	2468.4605719987
0	6855	565161.039473209578	2335.9840149991
0	6864	565800.478651374626	2131.5149626695
0	6871	566540.824598819065	2077.0523296203
0	6880	567380.489485664341	2209.9075272214
0	6889	567958.698097290519	1969.4204101805
0	6900	568852.133077941882	2035.6774006505
0	6909	569673.124306462753	2035.7721475884
0	6916	570391.607182659257	1943.9059870318
0	6925	571046.511896420319	1873.7929151393
0	6938	572304.005615366672	2329.0786367375
0	6945	573132.987891649877	2300.0067029614
0	6956	574003.900904115339	2451.5252723359
0	6965	574831.343792751481	2527.3381773848
0	6970	575208.665710827385	2027.8709247708
0	6979	575769.590202067097	1765.6892979518
0	6990	576864.98867352498	2033.6448807735
0	6997	577893.02198155788	2269.710035529
0	7010	578617.775068804671	2149.2423370946
0	7017	579033.654786413585	1774.3418422993
0	7026	579703.810937795838	1645.2174884733
0	7035	580614.616244891707	1996.841176087
0	7042	581070.498396037195	1980.5004433729
0	7051	581643.644647439991	1664.9349882267
0	7064	582897.316090017607	2239.518312877
0	7071	583367.321858089467	2029.1206553578
0	7078	583992.081804620152	1862.6729513984
0	7091	585335.800938634252	2438.4848486166
0	7098	586015.374077484062	2361.4412419964
0	7107	586947.23710315307	2415.509064775
0	7118	587830.639082472821	2494.8381438386
0	7125	588593.151547713255	2398.133745091
0	7134	589179.595957556789	2211.2939670682
0	7145	590186.511643230965	2355.8725607581
0	7154	590835.813918476974	2136.7961039767
0	7159	591170.56619497021	1746.6451284941
0	7164	591508.075792249342	1321.5641490184
0	7181	593225.374335050633	2389.5604165737
0	7190	594106.701050140014	2598.337817844
0	7199	594795.245239231786	2463.9599252958
0	7208	595550.203158985874	2324.8288239352
0	7215	595889.578849542937	1782.8777994029
0	7222	596837.277056509679	2042.0318172779
0	7235	597727.568225422925	2177.3650664371
0	7244	598437.545454874686	2094.434528891
0	7249	598832.908423757232	1896.6115852352
0	7262	599916.943800402856	2189.3755749799
0	7267	600278.259970480627	1840.7145156059
0	7276	601127.643956663138	2108.9748560451
0	7289	602301.907854387588	2384.9640539847
0	7296	602734.369620960257	2004.8999554943
0	7303	603498.063287884048	1991.707893787
0	7314	604236.61509761592	1934.7072432283
1	3147	260345.304699987191	348
1	3156	260926.520595839265	349
1	3165	261436.05601955207	350
1	3172	261769.881319301221	351
1	3183	263053.651050198841	352
1	3192	263953.481655009109	353
1	3203	264872.24456509577	354
1	3210	265633.637011516857	355
1	3219	266493.352718884143	356
1	3226	266941.761581087503	357
1	3237	267542.246113903839	358
1	3248	268442.514993343521	359
1	3253	268866.851582145337	360
1	3264	269972.467800322939	361
1	3271	270300.605679536257	362
1	3282	270852.984917443264	363
1	3291	271840.387533511985	364
1	3300	272603.778567770515	365
1	3307	273088.444910198469	366
1	3316	274073.471471434479	367
1	3325	274453.412546217461	368
1	3336	275661.769513227065	369
1	3345	276249.797097500433	370
1	3354	277129.958608048056	371
1	3361	277813.575420901199	372
1	3372	278358.482508687323	373
1	3379	279028.840740211329	374
1	3388	280171.224815631306	375
1	3401	280996.809485368451	376
1	3408	281559.294441808036	377
1	3419	282575.142921181416	378
1	3426	283183.536613360068	379
1	3437	284191.617495194098	380
1	3444	284864.869516063502	381
1	3451	285727.620840724578	382
1	3460	286175.162875419504	383
1	3473	287539.955514622874	384
1	3480	287994.902151078008	385
1	3487	288442.953727394364	386
1	3496	289383.491238160081	387
1	3505	289926.185956690482	388
1	3516	290603.781890356935	389
1	3525	291226.139941765017	390
1	3532	291649.781997967533	391
1	3541	292204.276406765006	392
1	3554	293326.939549623079	393
1	3563	294044.840428233168	394
1	3572	294882.913470547668	395
1	3577	295492.055104114137	396
1	3586	296170.171606075041	397
1	3595	296616.462539322696	398
1	3604	297622.376345051475	399
1	3617	298196.741042984672	400
1	3622	298549.962563579925	401
1	3631	299189.776663994439	402
1	3640	299763.365350384288	403
1	3649	300298.248444171646	404
1	3662	301451.264452748024	405
1	3667	301806.638804404088	406
1	3678	302716.691922303313	407
1	3685	303323.686129739532	408
1	3696	304190.291575854668	409
1	3703	304491.848591482291	410
1	3716	305898.801713436866	411
1	3723	306557.168562244648	412
1	3730	307216.165506234417	413
1	3743	308167.264230921888	414
1	3750	308838.21709393526	415
1	3757	309456.976546067768	416
1	3770	310404.029676318192	417
1	3777	310792.673133965605	418
1	3784	311520.682883262658	419
1	3797	312499.280350701906	420
1	3806	313118.548443680652	421
1	3815	313938.87743270027	422
1	3824	314558.44779107722	423
1	3829	314921.369294123748	424
1	3842	315827.261413726979	425
1	3849	316465.640468336665	426
1	3858	317058.556211181009	427
1	3869	317749.387160874927	428
1	3878	318583.703530021036	429
1	3885	319168.085495196307	430
1	3894	319941.588235739643	431
1	3903	320529.337498778502	432
1	3910	321253.242236003304	433
1	3919	321917.728338902841	434
1	3930	322583.988785091813	435
1	3937	323111.252360651295	436
1	3946	323779.328080918665	437
1	3957	324613.562187133382	438
1	3964	325127.220223657812	439
1	3973	326133.852362539645	440
1	3986	326938.194447336745	441
1	3993	327373.394128074896	442
1	4002	327904.983176663545	443
1	4013	328715.473690582466	444
1	4020	329186.530792247531	445
1	4027	329519.922885065925	446
1	4036	330652.521298080709	447
1	4045	331262.704207375673	448
1	4056	332559.362755855572	449
1	4067	333397.328912559923	450
1	4076	334279.011172195923	451
1	4081	334582.191174337667	452
1	4092	335618.793168012079	453
1	4099	336352.530823694568	454
1	4112	337408.643219992545	455
1	4119	338029.665258061167	456
1	4126	338497.652713023152	457
1	4135	339236.353128869113	458
1	4144	340229.764349525821	459
1	4153	340710.522829508436	460
1	4164	341649.322444852468	461
1	4171	342373.66049950945	462
1	4182	343055.626657744896	463
1	4191	343834.853630187016	464
1	4200	344679.083920503061	465
1	4211	345366.283377259996	466
1	4218	345868.245944520485	467
1	4227	346497.407815558862	468
1	4238	347462.173488037687	469
1	4245	348172.916414123055	470
1	4252	348625.700806360718	471
1	4261	349258.6263265461	472
1	4270	349984.400669764754	473
1	4281	350959.743347950306	474
1	4290	351582.930859504295	475
1	4301	352741.763853840557	476
1	4310	353620.779999950928	477
1	4317	354480.542839737636	478
1	4328	355378.341957321418	479
1	4335	355905.879108281834	480
1	4346	356978.883995488313	481
1	4351	357307.740781875354	482
1	4360	358131.656111078364	483
1	4371	359311.442801775437	484
1	4378	359758.661640202653	485
1	4387	360170.870543830123	486
1	4396	361296.081060078023	487
1	4409	362402.851446345476	488
1	4418	363229.171769879786	489
1	4425	363938.961006654454	490
1	4432	364502.441949443919	491
1	4443	365385.098557407064	492
1	4450	365902.688556583625	493
1	4459	366733.674270194051	494
1	4468	367256.246843375293	495
1	4479	368191.553233098266	496
1	4488	368901.910170447109	497
1	4495	369557.076951535446	498
1	4504	370115.51013048741	499
1	4513	371157.793258829071	500
1	4524	371897.376639582245	501
1	4531	372297.415094682975	502
1	4544	373611.884961649804	503
1	4551	374356.761508388473	504
1	4560	375129.919831082253	505
1	4569	375881.361705064802	506
1	4576	376520.117843057988	507
1	4587	377203.268931247322	508
1	4594	377902.828090265422	509
1	4603	378614.758379012375	510
1	4614	379276.399713708117	511
1	4625	380259.072065586253	512
1	4634	381066.943439003109	513
1	4643	381729.318163124873	514
1	4652	382507.695384090795	515
1	4661	383099.509876174881	516
1	4668	383832.861415296822	517
1	4675	384140.183259453654	518
1	4688	385238.073749793723	519
1	4697	385967.781197000325	520
1	4704	386475.198789965391	521
1	4713	387350.64366669397	522
1	4720	388000.678743235796	523
1	4731	388703.59979965727	524
1	4742	389571.969802491396	525
1	4751	390419.081248668983	526
1	4758	391022.614459600329	527
1	4767	391539.563111169293	528
1	4776	392644.885487342283	529
1	4783	393042.20970897007	530
1	4792	394250.122914975539	531
1	4801	394699.445615848556	532
1	4810	395467.975809238881	533
1	4821	396280.409475741938	534
1	4828	396834.887881111384	535
1	4837	397641.166988108337	536
1	4848	398938.223693612992	537
1	4855	399311.910162214219	538
1	4868	400318.099073600054	539
1	4875	400729.891601158336	540
1	4886	401973.098677396805	541
1	4893	402459.965236438469	542
1	4900	403114.730496145816	543
1	4911	403651.386557891995	544
1	4920	404496.806287765534	545
1	4931	405550.073947431551	546
1	4938	406050.17345105301	547
1	4945	406637.677916698189	548
1	4956	407758.999416790935	549
1	4965	408338.419489469412	550
1	4974	409091.865119989994	551
1	4985	409744.106057798523	552
1	4992	410315.569764934513	553
1	4999	410764.505632733959	554
1	5012	411837.355575850266	555
1	5017	412157.683070702511	556
1	5026	412841.67581512596	557
1	5035	413801.168433576854	558
1	5044	414194.475552812251	559
1	5055	415441.14575344141	560
1	5066	416594.008520990642	561
1	5073	417228.391743125426	562
1	5080	417761.597536504301	563
1	5089	418719.190010055932	564
1	5102	419445.500842714714	565
1	5107	419983.891712687941	566
1	5116	420427.517543407189	567
1	5127	421543.941903300615	568
1	5136	422029.661434516342	569
1	5143	422556.297004781695	570
1	5154	423731.077961158039	571
1	5161	424207.504765223743	572
1	5170	425045.054268417912	573
1	5183	425745.269711315664	574
1	5188	426285.727547993916	575
1	5201	427140.267677838015	576
1	5206	427549.424554640459	577
1	5215	428302.641071146386	578
1	5224	429233.272377960417	579
1	5237	430125.913375429841	580
1	5244	430671.153878280925	581
1	5253	431558.51274202581	582
1	5262	432439.819890819522	583
1	5271	432984.610588895189	584
1	5278	433594.649667525696	585
1	5287	434017.779108602586	586
1	5296	434528.930561570483	587
1	5305	435182.963051553848	588
1	5314	436022.757445927743	589
1	5325	437079.594808397847	590
1	5332	437678.543172217938	591
1	5341	438658.018923690575	592
1	5350	439577.403641911257	593
1	5363	440511.148985149372	594
1	5372	441212.000067019868	595
1	5381	441755.835452489588	596
1	5390	442593.636945309151	597
1	5397	443273.58141113076	598
1	5406	443759.911464666981	599
1	5409	444133.577599749002	600
1	5424	445619.747951813075	601
1	5431	446342.1156312805	602
1	5444	447292.518892558325	603
1	5451	447794.038407085497	604
1	5460	448615.398737322572	605
1	5467	449062.297130702097	606
1	5480	450214.642309863154	607
1	5489	450978.943025646765	608
1	5496	451540.618939418379	609
1	5503	451972.325250506434	610
1	5514	453438.475674251128	611
1	5521	453807.018428156186	612
1	5530	454680.092155700583	613
1	5541	455688.618855318089	614
1	5548	456243.746958067675	615
1	5557	456861.337972199579	616
1	5566	457901.241506869009	617
1	5579	458497.877940349316	618
1	5584	458881.49158484306	619
1	5595	459851.858440088143	620
1	5602	460467.272548936342	621
1	5611	461307.218073774164	622
1	5620	462050.765492068639	623
1	5631	463206.107383361122	624
1	5642	464023.25291158635	625
1	5647	464363.558149198106	626
1	5658	465257.25399618972	627
1	5669	466185.726345609909	628
1	5674	466492.323843436351	629
1	5683	467026.068006455934	630
1	5692	467853.970551397687	631
1	5701	468518.63491334956	632
1	5714	469527.940249023995	633
1	5719	470171.916873101181	634
1	5728	470882.066743914074	635
1	5741	471669.017359754107	636
1	5746	471997.196942567862	637
1	5759	472943.963686516545	638
1	5764	473293.642889382354	639
1	5777	474368.44650590796	640
1	5784	474902.023873385079	641
1	5791	475464.339911006428	642
1	5802	476751.429646136276	643
1	5811	477417.672444786913	644
1	5820	478208.136141719333	645
1	5831	479193.160759890489	646
1	5840	479932.70401661288	647
1	5847	480394.650753401257	648
1	5856	481013.968113251068	649
1	5865	482018.574238289185	650
1	5872	482619.320897385516	651
1	5881	483072.410144051575	652
1	5894	484331.189789716193	653
1	5901	484837.820029724428	654
1	5912	485579.027138231361	655
1	5921	486301.982468878889	656
1	5928	486862.878871243486	657
1	5935	487208.438914082983	658
1	5946	488004.100111965128	659
1	5957	489266.690283268729	660
1	5966	489920.828683069015	661
1	5973	490409.586617304051	662
1	5982	491555.674978299106	663
1	5991	492329.683111561502	664
1	6000	492897.286576079244	665
1	6007	493249.30970231075	666
1	6020	494764.138894435058	667
1	6025	495447.508526220957	668
1	6034	496214.830420911352	669
1	6043	496945.78046752144	670
1	6052	497620.684462180401	671
1	6063	498452.537588216404	672
1	6074	499621.407879469957	673
1	6083	500323.358361516189	674
1	6090	501046.703463653144	675
1	6101	502078.119449503761	676
1	6108	502718.886588513892	677
1	6119	503415.125344740269	678
1	6126	504133.57750461441	679
1	6135	504549.136919667986	680
1	6142	505431.771867256653	681
1	6155	506652.142263483299	682
1	6164	507469.367857882796	683
1	6171	508042.454067757396	684
1	6182	508880.177886318459	685
1	6191	509570.278295734941	686
1	6198	510008.283595880537	687
1	6207	510596.920727519362	688
1	6218	511755.456887930676	689
1	6225	512320.076185232073	690
1	6232	512659.289988689169	691
1	6245	513761.877341615082	692
1	6254	514536.311241472186	693
1	6263	515279.024700494529	694
1	6272	516110.611349623696	695
1	6281	516936.610576836438	696
1	6286	517251.25104677868	697
1	6299	518652.874686056794	698
1	6308	519477.69569191155	699
1	6313	520008.074024040298	700
1	6324	521116.519579757051	701
1	6331	521545.5880387221	702
1	6344	522331.820057379129	703
1	6349	522654.378123208928	704
1	6360	523596.192130912142	705
1	6367	524206.963880499872	706
1	6378	525043.888180190744	707
1	6385	525686.884134169714	708
1	6398	526541.122746141673	709
1	6403	526843.130565108777	710
1	6416	527634.2825012282	711
1	6425	528445.975595293613	712
1	6432	528886.140247341292	713
1	6439	529352.499636774929	714
1	6452	530838.277611415879	715
1	6457	531203.958170861052	716
1	6470	532081.04406832722	717
1	6479	532954.893486248376	718
1	6488	533726.700497651519	719
1	6495	534379.833036940591	720
1	6502	535443.569787405477	721
1	6513	536143.417085101874	722
1	6522	536993.219228507997	723
1	6531	537739.230918651493	724
1	6538	538178.233941318514	725
1	6551	539781.719026621477	726
1	6558	540446.361102629499	727
1	6565	540818.564360635401	728
1	6574	541314.188570017042	729
1	6583	541772.837317083077	730
1	6594	543191.07363335793	731
1	6605	543971.535445936072	732
1	6614	544852.997025009293	733
1	6619	545463.95324198534	734
1	6632	546408.30616140743	735
1	6637	546864.446184039165	736
1	6650	547772.397998487625	737
1	6659	548670.199465518866	738
1	6668	549459.699342772413	739
1	6675	550133.461773209322	740
1	6684	550830.606962274808	741
1	6695	551701.139127323452	742
1	6700	552056.031227856923	743
1	6713	553062.317505944568	744
1	6718	553440.026460355196	745
1	6727	554222.192348912406	746
1	6738	555524.159042816656	747
1	6745	556052.097715996253	748
1	6756	557044.135011266965	749
1	6763	557512.969585927251	750
1	6774	558129.950755974325	751
1	6783	558873.100959509658	752
1	6792	559470.626401668461	753
1	6803	560347.899584798189	754
1	6810	561057.85484067169	755
1	6819	561952.740039629908	756
1	6826	562549.827952869283	757
1	6835	563193.311059288728	758
1	6848	564463.772269198719	759
1	6855	565161.039473209578	760
1	6864	565800.478651374626	761
1	6871	566540.824598819065	762
1	6880	567380.489485664341	763
1	6889	567958.698097290519	764
1	6900	568852.133077941882	765
1	6909	569673.124306462753	766
1	6916	570391.607182659257	767
1	6925	571046.511896420319	768
1	6938	572304.005615366672	769
1	6945	573132.987891649877	770
1	6956	574003.900904115339	771
1	6965	574831.343792751481	772
1	6970	575208.665710827385	773
1	6979	575769.590202067097	774
1	6990	576864.98867352498	775
1	6997	577893.02198155788	776
1	7010	578617.775068804671	777
1	7017	579033.654786413585	778
1	7026	579703.810937795838	779
1	7035	580614.616244891707	780
1	7042	581070.498396037195	781
1	7051	581643.644647439991	782
1	7064	582897.316090017607	783
1	7071	583367.321858089467	784
1	7078	583992.081804620152	785
1	7091	585335.800938634252	786
1	7098	586015.374077484062	787
1	7107	586947.23710315307	788
1	7118	587830.639082472821	789
1	7125	588593.151547713255	790
1	7134	589179.595957556789	791
1	7145	590186.511643230965	792
1	7154	590835.813918476974	793
1	7159	591170.56619497021	794
1	7164	591508.075792249342	795
1	7181	593225.374335050633	796
1	7190	594106.701050140014	797
1	7199	594795.245239231786	798
1	7208	595550.203158985874	799
1	7215	595889.578849542937	800
1	7222	596837.277056509679	801
1	7235	597727.568225422925	802
1	7244	598437.545454874686	803
1	7249	598832.908423757232	804
1	7262	599916.943800402856	805
1	7267	600278.259970480627	806
1	7276	601127.643956663138	807
1	7289	602301.907854387588	808
1	7296	602734.369620960257	809
1	7303	603498.063287884048	810
1	7314	604236.61509761592	811

