version 2
run Pipelined_3Teachers-90-20190105-10:57:38-6784
attr configname Pipelined_3Teachers
attr datetime 20190105-10:57:38
attr experiment Pipelined_3Teachers
attr inifile ../simulations/omnetpp.ini
attr iterationvars "$0=\"uniform\""
attr iterationvarsf uniform-
attr measurement "$0=\"uniform\""
attr network PipelinedExamSession
attr processid 6784
attr repetition 90
attr replication #90
attr resultdir results
attr runnumber 90
attr seedset 90
param **.teachersNumber 3
param **.answerTimeDistribution "\"uniform\""
param **.minUniform 300
param **.maxUniform 900
param **.scaleLognormal 6.2854
param **.shapeLognormal 0.4724

vector 0 PipelinedExamSession examinationTime:vector ETV
attr source examFinished
vector 1 PipelinedExamSession studentID:vector ETV
attr source student
0	3185	260187.970408564448	2348.7678939477
0	3190	260495.793478796273	1933.5285242647
0	3199	261174.611995602041	1713.6636109091
0	3210	262196.208255970865	2008.2378474064
0	3221	263085.106328548878	2416.3939582184
0	3226	263526.466047205045	1980.546291545
0	3239	264633.151225280031	2433.4422491491
0	3246	265287.474820576623	2202.3684920277
0	3257	265873.232852434754	2137.5043929555
0	3266	266723.357353080079	2090.2061278
0	3271	267111.906713666409	1752.0284051076
0	3280	267635.842608986438	1762.6097565517
0	3289	268752.365283295527	2029.0079302154
0	3298	269522.261086246014	2116.6666725185
0	3309	270421.056803315894	2128.481240524
0	3318	271040.172134013863	2061.8731892668
0	3325	272029.513255879299	2306.2725214753
0	3338	272877.647140156494	2322.8349370882
0	3343	273480.551097728328	2338.3551053703
0	3352	274123.389590252207	2087.1537757572
0	3361	274917.721208045276	2040.0740678888
0	3372	276028.264058707299	2252.4829239585
0	3381	276783.955944282951	2110.336355539
0	3388	277206.57967329027	1801.9796807785
0	3397	277654.518235847372	1612.6174449921
0	3406	278321.337942872214	1498.4654868487
0	3415	279017.703926609847	1671.3405128103
0	3426	279955.877215275559	1947.3149891943
0	3435	280412.458378169704	1705.828442378
0	3446	281376.507428241912	2019.5704230107
0	3455	282005.984421959165	2041.8299501762
0	3462	282611.394501803461	2028.7346437108
0	3473	283403.053291188571	2026.5458629467
0	3482	284002.522379625607	1996.5379576664
0	3487	284303.79730761053	1600.4462511744
0	3498	285107.115010684374	1704.0617194958
0	3505	285592.040514154378	1589.5181345288
0	3514	286282.310509029794	1699.0660575684
0	3523	287244.194409856591	1983.412692463
0	3532	288014.007220789809	1986.9048773311
0	3541	288620.758311264235	1721.5762421954
0	3554	289812.128032883647	2265.3601032682
0	3563	290630.820481572318	2564.7422673181
0	3568	291125.854350160825	2177.9037020635
0	3581	292146.018384955841	2333.8903520722
0	3588	292745.021977275628	2114.2014957033
0	3595	293243.802139861527	1829.9464216456
0	3604	293969.380764104443	1823.3623791486
0	3617	294986.953874258341	2014.3353508785
0	3622	295401.377405086549	1726.2908890843
0	3633	296236.798895616101	2120.6320728175
0	3642	297015.236408589425	2028.2825343311
0	3651	297538.591799139993	1881.6325403284
0	3660	297941.970270127075	1705.0713803619
0	3671	299062.854924984293	2026.5035765246
0	3678	299428.545314166712	1829.609897593
0	3685	300055.325623601692	1845.481369039
0	3696	301011.127964453789	1948.2730394695
0	3707	301792.569991154614	1980.4903896991
0	3712	302324.991155834886	1848.8548869733
0	3721	303156.670088740084	2109.3356200028
0	3734	303673.027089284751	1880.4570981301
0	3739	304037.185716955009	1397.5047984626
0	3748	304695.935422042403	1432.4795752298
0	3757	305865.764590026829	2192.7375007421
0	3766	306455.949923442695	1898.9249031991
0	3775	306890.128317894433	1528.5362269264
0	3784	308005.376044800523	1782.4532372877
0	3797	309137.699137860927	2485.7811909635
0	3802	309581.451628217492	2060.9407128766
0	3811	310566.437281016279	2221.2616356555
0	3820	311062.049629725533	1924.3504918646
0	3831	312216.431256104278	2218.1537741795
0	3838	312989.15618592875	2293.435145868
0	3847	313353.707193536702	1915.2868640609
0	3858	314510.527561465296	2205.8769708965
0	3867	315226.47539838219	2030.71176745
0	3876	315768.082573357988	1761.260674987
0	3883	316232.219973625634	1365.4716068879
0	3892	317274.649337958563	2025.1360515598
0	3901	317819.039880763758	1916.6604815517
0	3912	318947.787330904994	2219.7024611291
0	3923	319625.208599539492	2266.100946581
0	3930	320286.422055820022	2156.4945111517
0	3937	320616.251925984416	1610.6876401696
0	3948	321881.350879976545	2256.1422804371
0	3955	322388.621865632032	1960.4573177174
0	3968	323587.552465125938	2554.9412914552
0	3977	324351.898854877819	2467.4467035569
0	3982	324656.310066254829	1888.7092149351
0	3995	325547.945181280394	1960.3927161545
0	4002	326258.725540386532	1906.8266855087
0	4009	326672.860569041241	1854.8377764411
0	4018	327482.040713215267	1934.0955319349
0	4027	328213.879461726194	1884.431297332
0	4038	329272.161436965709	2125.859123189
0	4047	329764.975431421792	1900.8358411957
0	4054	330379.477889975553	1950.2125696745
0	4063	331352.523275138831	2031.0668243095
0	4076	332191.314929164967	2062.0201846585
0	4085	333029.724863497561	2218.2828605175
0	4092	333711.976492451525	2075.519601116
0	4101	334335.2913761046	2143.9764469396
0	4108	334820.338729117087	1790.6138656195
0	4117	335261.227153195089	1331.7559202202
0	4126	336149.508233321852	1735.2603524923
0	4137	337200.875021098203	1988.4458205197
0	4144	337886.198964016533	1861.3689196296
0	4153	338765.543737169377	2096.6016590595
0	4166	339950.457290746293	2404.5985265169
0	4175	340830.033331224716	2439.0046548564
0	4182	341500.885768979809	2257.1021768264
0	4189	342273.931962624213	2323.4746718779
0	4198	342752.364303264789	1922.3309720401
0	4207	343752.294962201288	2230.2992173936
0	4218	344342.306518089048	1957.4833251536
0	4225	344687.186346016846	1462.3151358683
0	4236	345762.677942449249	1791.7551973835
0	4247	346622.698060143762	2160.0612086244
0	4254	347449.647930404194	2323.5335529316
0	4263	348007.694685598858	2110.0001587998
0	4270	348437.649600813188	1814.9515406694
0	4279	349268.863052269467	1801.4383344445
0	4288	350073.332428140589	1743.1261521298
0	4299	350919.757385971047	1949.5232293848
0	4308	351554.554009856679	2089.7882041521
0	4319	352661.503607919463	2499.302947009
0	4328	353427.96781738291	2406.4824772999
0	4335	353902.511773305037	2078.8905094843
0	4342	354633.866174379387	1972.3625664599
0	4353	355371.723608113849	1943.7557907309
0	4364	356308.351968973898	2171.8207670376
0	4371	357008.57755551117	2176.5037813224
0	4378	357612.105725007155	1975.1869766973
0	4387	358406.379297142872	2098.027328169
0	4400	359363.097025640332	2214.8843237199
0	4407	359917.789355199807	2082.268229546
0	4414	360222.901461878814	1515.1225858368
0	4423	361090.751630254114	1727.6546046138
0	4434	361835.844932729402	1878.544131713
0	4443	362578.253342863196	1746.6370441485
0	4454	363440.974306454906	2068.4770284221
0	4461	364290.440940437862	2314.4190295134
0	4472	365178.4841002431	2461.9508843869
0	4481	365941.213417192944	2500.239110738
0	4490	366725.045085372426	2415.2711431961
0	4497	367198.083641147264	2019.5995409042
0	4504	367916.565682087117	1975.3522648942
0	4513	368625.495281629287	1900.4501962569
0	4526	369674.04910353946	2300.6170637906
0	4535	370551.964120985963	2615.7310215756
0	4542	370948.230221355357	2143.197801942
0	4549	371721.237898757704	2047.1887952182
0	4560	372810.686332499631	2258.7222115137
0	4567	373382.250641193264	2063.0304596387
0	4578	374369.094493752369	2343.8636032864
0	4587	375058.043246157491	2228.4853968769
0	4598	375717.148273531371	2016.2936223205
0	4605	376129.816326638707	1728.9084852207
0	4612	376645.516493311175	1510.3874980006
0	4625	377965.920906001726	2248.7726324704
0	4630	378283.649584231922	2027.5884771254
0	4639	379234.954780479917	2164.2912936397
0	4648	379841.476088622609	1875.5551826209
0	4661	381236.272259848217	2371.2909379508
0	4666	381621.167801599974	1868.5072698165
0	4679	382549.068819684932	1898.6661495175
0	4684	382875.145152350912	1638.8728925027
0	4697	383747.059306176404	1717.6802571863
0	4704	384463.008561031918	1913.939741347
0	4711	385003.142867563317	1947.0361848827
0	4722	385926.300810137788	2179.2415039614
0	4733	386848.600435210416	2215.5727496836
0	4738	387573.032918851847	2448.1057961471
0	4751	388410.445699933941	2423.8879058976
0	4760	389184.059951920087	2335.4595167097
0	4765	389826.066785026366	2156.7971643526
0	4774	390301.173681719253	1890.7279817853
0	4785	391448.779923515419	2264.7199715953
0	4794	392249.225243506978	2222.1155741718
0	4805	393079.224977921719	2309.0647387784
0	4814	393648.676483472834	2165.8168424852
0	4819	394029.548041569094	1755.9768996667
0	4830	394790.114912018205	1710.8899340965
0	4841	395843.087825551654	2194.4113420788
0	4848	396477.255813963736	2144.8552428279
0	4857	397413.770078960831	2437.8421622794
0	4866	398265.626220172296	2422.5383946206
0	4875	399004.954772070075	2393.2017059997
0	4884	399848.539273068334	2433.5840682965
0	4893	400602.802766673292	2312.8413568251
0	4904	401436.593802971791	2317.8278117906
0	4909	401800.052328826885	1924.2618004326
0	4920	402551.101206103365	1888.4430661798
0	4931	403495.266112173003	2058.6723092012
0	4938	404213.834469392923	2227.2858537734
0	4945	404802.318154228879	2203.2311083283
0	4958	405533.857880719034	2038.591768546
0	4965	406246.887277811794	1916.7258017231
0	4972	406595.902217645226	1634.4946058001
0	4981	407513.132099155365	1979.2742184363
0	4990	408413.80423796366	2013.7315836735
0	5001	409358.623739378556	2065.8087533433
0	5008	409854.984841961443	1792.0299853664
0	5017	410904.375524260133	1999.6224206407
0	5026	411490.912183234497	1721.2498828769
0	5035	411990.543979452952	1596.539085824
0	5044	412868.567325733631	1744.834390562
0	5053	413605.784217081993	1915.6614190433
0	5064	414504.174374789029	2087.2543981299
0	5073	415274.345691734954	2017.3607496545
0	5084	416383.473546383932	2418.1249448564
0	5089	416863.030599569931	2116.8935051188
0	5102	417669.417030829966	2055.2216129377
0	5109	418241.823106957629	1858.3495605737
0	5116	418817.109944438591	1814.4217686262
0	5127	419757.674503047049	2088.2574722171
0	5134	420144.753760658234	1740.289644571
0	5145	421169.886589050323	2008.7613211479
0	5152	421496.043292852149	1598.7135469448
0	5165	422528.488214174315	1979.1629243642
0	5174	423313.408747455135	2070.1939826366
0	5179	423790.880454517931	1764.8175339215
0	5192	424808.111559832498	2279.6233456582
0	5197	425205.761250760436	1892.3525033053
0	5208	426374.786784499913	2429.4264020864
0	5219	426987.592030037224	2179.4804702047
0	5224	427320.976071059733	1784.2376172077
0	5235	428355.535711627484	1965.0047358591
0	5242	429100.49199233766	2112.8999623004
0	5253	430019.10256468694	2170.5127256457
0	5260	430678.924722410769	2000.1502271276
0	5269	431671.507644513653	2222.0057138242
0	5280	432564.739360101552	2254.4316143263
0	5287	433027.195671340482	1912.8874314018
0	5296	433776.550252782212	1895.4080558382
0	5305	434149.827898247198	1516.8052382302
0	5314	435076.037175161794	1708.1848841161
0	5325	435768.311519455195	1940.1928064413
0	5332	436280.56573108773	1788.4181729984
0	5341	437005.32200485471	1876.5296853147
0	5350	437662.408410804377	1884.7066459246
0	5361	438624.685970228196	2055.1748986356
0	5368	439229.913901677386	1788.9129010029
0	5377	439744.347842037708	1619.6664382238
0	5386	440380.900545883954	1660.2033679839
0	5395	440897.674755798683	1486.4718006458
0	5406	441718.617770355226	1741.9889688492
0	5415	442324.580106837706	1845.2998865861
0	5426	443299.208178604052	2234.4671441708
0	5431	443735.38027969192	1825.5503778812
0	5444	444831.052569067136	2375.4719983321
0	5449	445203.08760534975	1903.8794267457
0	5458	445856.616551522196	1805.9037453029
0	5467	446601.207596948401	1770.1550278813
0	5480	447233.64722407426	1854.7053866554
0	5485	447649.671145621718	1510.4116274044
0	5496	448626.735717617006	1859.6917603165
0	5505	449407.301703980223	2173.654479906
0	5516	450299.852709984438	2367.7753819618
0	5523	451052.976016653733	2373.5126211774
0	5532	451879.725539870592	2336.7652697023
0	5543	452775.436183903398	2475.583473919
0	5550	453230.507661681654	2033.4089490585
0	5557	453538.935634447293	1586.4706189837
0	5566	454532.476855069431	1757.040671166
0	5579	455561.182857491108	2240.1598250493
0	5588	456387.731533683869	2376.8214682583
0	5597	457131.830336060408	2438.4906808846
0	5606	457948.715152032706	2387.5322945416
0	5611	458332.529673306304	1944.7981396224
0	5620	459070.610284991595	1938.7799489312
0	5631	459925.030526798251	1976.3153747655
0	5638	460428.482220182227	1862.3001642991
0	5647	461148.860599799113	1778.7083040923
0	5660	462120.747026475179	2174.869288411
0	5669	462933.37899190377	2222.7290367242
0	5676	463648.675933247465	2283.5029934999
0	5683	464023.428043909404	1902.6810174342
0	5694	464932.209464069489	1998.8304721657
0	5703	465648.182741878587	1827.8323853854
0	5714	466348.990871524471	1899.4160103612
0	5721	467047.523374250191	1920.5903828144
0	5732	467489.363289624485	1656.0055577662
0	5737	468091.750555811482	1742.759684287
0	5748	468971.729821432414	1815.1619617827
0	5755	469516.657605953547	2027.2943163291
0	5766	470286.641954490948	1905.028110696
0	5773	470985.23187786344	1770.5644159578
0	5786	471850.780037138643	1937.9465367179
0	5793	472231.843830971079	1685.9925513156
0	5802	473106.338439043644	1790.0059862528
0	5811	473914.849550882387	2064.0695137437
0	5822	474867.756276950272	2473.5108414665
0	5831	475562.870828295158	2376.3282327913
0	5836	475864.049029536577	1783.2645726856
0	5845	476693.92227754	1826.1660005897
0	5854	477728.885221341656	2166.0143930465
0	5867	478702.102003153445	2363.9027471188
0	5876	479158.941931882905	2037.4673474114
0	5883	479939.294054266097	1999.1345850751
0	5890	480302.11727586578	1600.0152727123
0	5899	481392.151396209406	2233.2094643265
0	5908	482013.143862504544	2054.1560640559
0	5919	482640.884778415817	1819.0762890503
0	5926	483279.251330718431	1566.6735554114
0	5939	484578.322025807607	2321.8366581481
0	5944	485223.045989451963	2071.2563120294
0	5957	486309.734013676676	2521.6032599565
0	5964	486707.210872555184	2128.8888467476
0	5973	487142.157567059654	1714.9936190341
0	5980	487793.605505721676	1483.871492045
0	5989	488281.762280222061	1560.3483094834
0	6002	489618.229928473043	2358.9183504693
0	6009	490116.391743533346	2115.7673499081
0	6018	490899.504215503144	2174.2315799464
0	6027	491788.920017564702	2170.6900890917
0	6036	492572.601895546573	2329.492474068
0	6047	493313.747949432614	2235.7948835939
0	6054	493821.017872402477	1935.3975167032
0	6061	494544.24097244631	1929.7795125749
0	6074	495652.758646337348	2339.0106969047
0	6081	496200.999817438456	2051.0835138615
0	6088	496778.929817257482	1884.9292755593
0	6101	497881.097443169016	2228.3387968317
0	6110	498725.560999754849	2505.6226916146
0	6119	499580.308890156481	2480.6969742291
0	6126	500290.174887701902	2409.0774445329
0	6135	500786.015884811092	2060.4548850562
0	6142	501362.291033053804	1781.9821428973
0	6155	502750.89795389216	2376.3175254688
0	6160	503151.730157760937	2047.426398145
0	6169	503967.630379227955	2021.9882966951
0	6182	504875.718849571455	2124.8208956793
0	6189	505540.964965894852	1921.9162038993
0	6198	506479.332324955646	2360.2614542004
0	6205	506888.320723548565	2012.6018739771
0	6214	507510.931744007428	1788.7139033061
0	6225	508328.554266365278	1762.3816475272
0	6234	509157.363035157357	1816.9701700564
0	6243	509754.77804448459	1815.8364870586
0	6252	510564.486694755067	2063.0343259312
0	6261	511130.107415188138	1942.6339508034
0	6270	512128.783876262639	2066.3927173242
0	6281	513035.137908021022	2319.9045181274
0	6286	513350.46125412922	1825.6931461394
0	6297	514260.600999696214	2080.5182863958
0	6304	514713.579576043446	1678.4416680224
0	6315	515325.625735614483	1712.6230067108
0	6324	516015.989694697817	1600.828824006
0	6331	516837.150170607527	1874.5667444542
0	6340	517481.215158524025	1929.2801467236
0	6353	518446.274450887028	2254.461724218
0	6360	519167.671916540746	2087.0736208744
0	6369	519649.053389299695	1911.2719035242
0	6376	520168.48423336636	1722.2097824793
0	6389	521607.727448176626	2380.1403716672
0	6396	522104.973338311572	2063.2594423369
0	6405	522980.984239093993	2041.0121544264
0	6412	523629.178824741427	2021.4513765648
0	6425	524451.081051724065	2239.2277033534
0	6434	525114.64212778959	2082.6334543526
0	6441	525530.674784537438	1770.4044921789
0	6448	525975.979130482334	1524.8980787583
0	6459	527343.929239036548	2229.287111247
0	6470	528264.807808818328	2392.7584054414
0	6475	528659.937522187861	1995.4712343402
0	6484	529437.085353070902	2065.752118919
0	6493	529821.788617456364	1556.980808638
0	6502	530687.516931351307	1776.5656805132
0	6513	531701.215943601016	2146.9122125767
0	6524	532579.709845315699	2220.3998301644
0	6533	533456.934221182053	2327.7784769889
0	6542	534221.543008228798	2506.4990142826
0	6551	534840.244448650662	2260.534603335
0	6558	535470.019656233523	2013.0854350515
0	6567	535891.603020625222	1670.0600123964
0	6574	536567.19107567336	1726.9466270227
0	6583	537045.056703407351	1485.0982348435
0	6592	537879.892031522501	1884.8940640222
0	6601	538588.803672976825	1886.3686992321
0	6610	539656.860275147517	2285.6879857834
0	6621	540501.110632438246	2288.9498205855
0	6628	540856.0255441815	1766.5945003275
0	6639	541761.628379998762	1971.1092897691
0	6650	542873.436937853728	2364.0131729655
0	6655	543514.324941393022	2277.9885948636
0	6664	544105.898186517914	2090.995835932
0	6677	545029.996519535814	2156.5595816821
0	6684	545701.778080081601	1983.8630093727
0	6695	546588.712225388769	2316.0846459679
0	6704	547303.903404856134	2273.9068853203
0	6711	547735.145850665901	2008.9659830555
0	6720	548448.729182593558	1860.0169572048
0	6731	549307.325378665734	2003.4219738096
0	6738	549996.172958985005	2156.8402210716
0	6749	550954.733927222002	2379.1128432378
0	6754	551416.556160338256	2109.2307816725
0	6765	552279.482170427252	2206.1332077719
0	6776	552919.042804185335	1964.3088769633
0	6783	553419.994443096254	1604.1317126714
0	6790	553725.222436152432	1370.4821003135
0	6801	554776.909411791746	1857.8666076064
0	6808	555669.541844911908	2012.1461047791
0	6819	556390.663268649985	2090.5765866861
0	6826	556775.94064464796	1895.7428466529
0	6835	557391.860225703602	1620.6395386253
0	6848	558850.544376717914	2453.722804226
0	6857	559716.386469081078	2584.6546498127
0	6864	560423.409597203169	2400.1880323514
0	6873	561133.569218963418	2283.0248422455
0	6880	561870.778047898818	2154.3915788177
0	6889	562725.829257862676	2154.9740656279
0	6898	563539.379617804695	2089.568532072
0	6907	564134.226789744605	1875.2746996935
0	6918	565408.895352110301	2288.7111077551
0	6927	566191.728084767272	2269.2685887683
0	6934	566724.044015910511	1928.2117534429
0	6943	567609.347851015662	2061.0621638596
0	6952	568318.959787627717	2038.0240273196
0	6961	568914.062581490761	1760.9153785743
0	6974	570065.679084090552	2354.4358624611
0	6981	570511.543357651717	1903.1383483205
0	6990	571584.979716176203	2312.6966519281
0	7001	572521.94767571058	2456.26859162
0	7006	572864.882618794254	2073.5673565418
0	7015	573803.723763814232	2132.1358464193
0	7024	574518.602333916387	1996.6546582058
0	7033	575256.039776187425	1931.6544561647
0	7044	575901.898174267298	1836.0946774017
0	7051	576301.516104536167	1557.9227125738
0	7064	577676.199949393085	2218.9657720271
0	7073	578480.120320105961	2530.5061861407
0	7078	578862.515208357981	2075.9950475302
0	7091	580019.284494733474	2343.0845453404
0	7098	580528.351618163324	2048.2312980574
0	7105	580866.809216374568	1639.8730702233
0	7116	582087.201740127093	2067.9172453936
0	7125	582783.555870177261	1948.2789527625
0	7134	583377.756121382154	1707.0523722097
0	7143	584460.925232805348	2168.2293293998
0	7150	584987.032105308062	2161.8831500877
0	7161	586051.975037483535	2368.2285181247
0	7168	586438.247955590523	1867.8434228059
0	7179	587475.282822037152	2229.4302107301
0	7190	588354.871808365024	2242.3267505597
0	7199	589115.72245052088	2182.0037249476
0	7204	589946.572651667557	2207.038592454
0	7213	590504.012701660431	2149.1408932954
0	7226	591463.218604959584	2347.4961544387
0	7231	591992.11695771668	1982.5752530247
0	7244	592984.984455909616	2404.8389664385
0	7251	593529.87646842379	2066.6578634642
0	7258	594010.118583496696	1734.5743264072
0	7271	595236.508979089594	2251.52452318
0	7278	595666.688520228526	1866.6498558596
0	7287	596525.080866459793	1954.1115090251
0	7290	596955.644735042042	1719.1357559524
0	7307	598095.1749724802	1979.8013387248
0	7316	598852.954626269676	1862.9876109771
0	7325	599731.040573911779	2231.7918025889
0	7330	600106.698109488972	2011.5231370088
0	7341	600811.110798781775	1958.1561725121
0	7350	601565.716770524196	1834.6761966124
0	7359	602043.670346634499	1666.0014113411
0	7370	603075.397833203934	2205.6700578891
0	7379	603810.822719056196	2111.4883907139
0	7386	604190.1314559393	1908.4539403673
0	7393	604737.175127863921	1661.77729466
1	3185	260187.970408564448	352
1	3190	260495.793478796273	353
1	3199	261174.611995602041	354
1	3210	262196.208255970865	355
1	3221	263085.106328548878	356
1	3226	263526.466047205045	357
1	3239	264633.151225280031	358
1	3246	265287.474820576623	359
1	3257	265873.232852434754	360
1	3266	266723.357353080079	361
1	3271	267111.906713666409	362
1	3280	267635.842608986438	363
1	3289	268752.365283295527	364
1	3298	269522.261086246014	365
1	3309	270421.056803315894	366
1	3318	271040.172134013863	367
1	3325	272029.513255879299	368
1	3338	272877.647140156494	369
1	3343	273480.551097728328	370
1	3352	274123.389590252207	371
1	3361	274917.721208045276	372
1	3372	276028.264058707299	373
1	3381	276783.955944282951	374
1	3388	277206.57967329027	375
1	3397	277654.518235847372	376
1	3406	278321.337942872214	377
1	3415	279017.703926609847	378
1	3426	279955.877215275559	379
1	3435	280412.458378169704	380
1	3446	281376.507428241912	381
1	3455	282005.984421959165	382
1	3462	282611.394501803461	383
1	3473	283403.053291188571	384
1	3482	284002.522379625607	385
1	3487	284303.79730761053	386
1	3498	285107.115010684374	387
1	3505	285592.040514154378	388
1	3514	286282.310509029794	389
1	3523	287244.194409856591	390
1	3532	288014.007220789809	391
1	3541	288620.758311264235	392
1	3554	289812.128032883647	393
1	3563	290630.820481572318	394
1	3568	291125.854350160825	395
1	3581	292146.018384955841	396
1	3588	292745.021977275628	397
1	3595	293243.802139861527	398
1	3604	293969.380764104443	399
1	3617	294986.953874258341	400
1	3622	295401.377405086549	401
1	3633	296236.798895616101	402
1	3642	297015.236408589425	403
1	3651	297538.591799139993	404
1	3660	297941.970270127075	405
1	3671	299062.854924984293	406
1	3678	299428.545314166712	407
1	3685	300055.325623601692	408
1	3696	301011.127964453789	409
1	3707	301792.569991154614	410
1	3712	302324.991155834886	411
1	3721	303156.670088740084	412
1	3734	303673.027089284751	413
1	3739	304037.185716955009	414
1	3748	304695.935422042403	415
1	3757	305865.764590026829	416
1	3766	306455.949923442695	417
1	3775	306890.128317894433	418
1	3784	308005.376044800523	419
1	3797	309137.699137860927	420
1	3802	309581.451628217492	421
1	3811	310566.437281016279	422
1	3820	311062.049629725533	423
1	3831	312216.431256104278	424
1	3838	312989.15618592875	425
1	3847	313353.707193536702	426
1	3858	314510.527561465296	427
1	3867	315226.47539838219	428
1	3876	315768.082573357988	429
1	3883	316232.219973625634	430
1	3892	317274.649337958563	431
1	3901	317819.039880763758	432
1	3912	318947.787330904994	433
1	3923	319625.208599539492	434
1	3930	320286.422055820022	435
1	3937	320616.251925984416	436
1	3948	321881.350879976545	437
1	3955	322388.621865632032	438
1	3968	323587.552465125938	439
1	3977	324351.898854877819	440
1	3982	324656.310066254829	441
1	3995	325547.945181280394	442
1	4002	326258.725540386532	443
1	4009	326672.860569041241	444
1	4018	327482.040713215267	445
1	4027	328213.879461726194	446
1	4038	329272.161436965709	447
1	4047	329764.975431421792	448
1	4054	330379.477889975553	449
1	4063	331352.523275138831	450
1	4076	332191.314929164967	451
1	4085	333029.724863497561	452
1	4092	333711.976492451525	453
1	4101	334335.2913761046	454
1	4108	334820.338729117087	455
1	4117	335261.227153195089	456
1	4126	336149.508233321852	457
1	4137	337200.875021098203	458
1	4144	337886.198964016533	459
1	4153	338765.543737169377	460
1	4166	339950.457290746293	461
1	4175	340830.033331224716	462
1	4182	341500.885768979809	463
1	4189	342273.931962624213	464
1	4198	342752.364303264789	465
1	4207	343752.294962201288	466
1	4218	344342.306518089048	467
1	4225	344687.186346016846	468
1	4236	345762.677942449249	469
1	4247	346622.698060143762	470
1	4254	347449.647930404194	471
1	4263	348007.694685598858	472
1	4270	348437.649600813188	473
1	4279	349268.863052269467	474
1	4288	350073.332428140589	475
1	4299	350919.757385971047	476
1	4308	351554.554009856679	477
1	4319	352661.503607919463	478
1	4328	353427.96781738291	479
1	4335	353902.511773305037	480
1	4342	354633.866174379387	481
1	4353	355371.723608113849	482
1	4364	356308.351968973898	483
1	4371	357008.57755551117	484
1	4378	357612.105725007155	485
1	4387	358406.379297142872	486
1	4400	359363.097025640332	487
1	4407	359917.789355199807	488
1	4414	360222.901461878814	489
1	4423	361090.751630254114	490
1	4434	361835.844932729402	491
1	4443	362578.253342863196	492
1	4454	363440.974306454906	493
1	4461	364290.440940437862	494
1	4472	365178.4841002431	495
1	4481	365941.213417192944	496
1	4490	366725.045085372426	497
1	4497	367198.083641147264	498
1	4504	367916.565682087117	499
1	4513	368625.495281629287	500
1	4526	369674.04910353946	501
1	4535	370551.964120985963	502
1	4542	370948.230221355357	503
1	4549	371721.237898757704	504
1	4560	372810.686332499631	505
1	4567	373382.250641193264	506
1	4578	374369.094493752369	507
1	4587	375058.043246157491	508
1	4598	375717.148273531371	509
1	4605	376129.816326638707	510
1	4612	376645.516493311175	511
1	4625	377965.920906001726	512
1	4630	378283.649584231922	513
1	4639	379234.954780479917	514
1	4648	379841.476088622609	515
1	4661	381236.272259848217	516
1	4666	381621.167801599974	517
1	4679	382549.068819684932	518
1	4684	382875.145152350912	519
1	4697	383747.059306176404	520
1	4704	384463.008561031918	521
1	4711	385003.142867563317	522
1	4722	385926.300810137788	523
1	4733	386848.600435210416	524
1	4738	387573.032918851847	525
1	4751	388410.445699933941	526
1	4760	389184.059951920087	527
1	4765	389826.066785026366	528
1	4774	390301.173681719253	529
1	4785	391448.779923515419	530
1	4794	392249.225243506978	531
1	4805	393079.224977921719	532
1	4814	393648.676483472834	533
1	4819	394029.548041569094	534
1	4830	394790.114912018205	535
1	4841	395843.087825551654	536
1	4848	396477.255813963736	537
1	4857	397413.770078960831	538
1	4866	398265.626220172296	539
1	4875	399004.954772070075	540
1	4884	399848.539273068334	541
1	4893	400602.802766673292	542
1	4904	401436.593802971791	543
1	4909	401800.052328826885	544
1	4920	402551.101206103365	545
1	4931	403495.266112173003	546
1	4938	404213.834469392923	547
1	4945	404802.318154228879	548
1	4958	405533.857880719034	549
1	4965	406246.887277811794	550
1	4972	406595.902217645226	551
1	4981	407513.132099155365	552
1	4990	408413.80423796366	553
1	5001	409358.623739378556	554
1	5008	409854.984841961443	555
1	5017	410904.375524260133	556
1	5026	411490.912183234497	557
1	5035	411990.543979452952	558
1	5044	412868.567325733631	559
1	5053	413605.784217081993	560
1	5064	414504.174374789029	561
1	5073	415274.345691734954	562
1	5084	416383.473546383932	563
1	5089	416863.030599569931	564
1	5102	417669.417030829966	565
1	5109	418241.823106957629	566
1	5116	418817.109944438591	567
1	5127	419757.674503047049	568
1	5134	420144.753760658234	569
1	5145	421169.886589050323	570
1	5152	421496.043292852149	571
1	5165	422528.488214174315	572
1	5174	423313.408747455135	573
1	5179	423790.880454517931	574
1	5192	424808.111559832498	575
1	5197	425205.761250760436	576
1	5208	426374.786784499913	577
1	5219	426987.592030037224	578
1	5224	427320.976071059733	579
1	5235	428355.535711627484	580
1	5242	429100.49199233766	581
1	5253	430019.10256468694	582
1	5260	430678.924722410769	583
1	5269	431671.507644513653	584
1	5280	432564.739360101552	585
1	5287	433027.195671340482	586
1	5296	433776.550252782212	587
1	5305	434149.827898247198	588
1	5314	435076.037175161794	589
1	5325	435768.311519455195	590
1	5332	436280.56573108773	591
1	5341	437005.32200485471	592
1	5350	437662.408410804377	593
1	5361	438624.685970228196	594
1	5368	439229.913901677386	595
1	5377	439744.347842037708	596
1	5386	440380.900545883954	597
1	5395	440897.674755798683	598
1	5406	441718.617770355226	599
1	5415	442324.580106837706	600
1	5426	443299.208178604052	601
1	5431	443735.38027969192	602
1	5444	444831.052569067136	603
1	5449	445203.08760534975	604
1	5458	445856.616551522196	605
1	5467	446601.207596948401	606
1	5480	447233.64722407426	607
1	5485	447649.671145621718	608
1	5496	448626.735717617006	609
1	5505	449407.301703980223	610
1	5516	450299.852709984438	611
1	5523	451052.976016653733	612
1	5532	451879.725539870592	613
1	5543	452775.436183903398	614
1	5550	453230.507661681654	615
1	5557	453538.935634447293	616
1	5566	454532.476855069431	617
1	5579	455561.182857491108	618
1	5588	456387.731533683869	619
1	5597	457131.830336060408	620
1	5606	457948.715152032706	621
1	5611	458332.529673306304	622
1	5620	459070.610284991595	623
1	5631	459925.030526798251	624
1	5638	460428.482220182227	625
1	5647	461148.860599799113	626
1	5660	462120.747026475179	627
1	5669	462933.37899190377	628
1	5676	463648.675933247465	629
1	5683	464023.428043909404	630
1	5694	464932.209464069489	631
1	5703	465648.182741878587	632
1	5714	466348.990871524471	633
1	5721	467047.523374250191	634
1	5732	467489.363289624485	635
1	5737	468091.750555811482	636
1	5748	468971.729821432414	637
1	5755	469516.657605953547	638
1	5766	470286.641954490948	639
1	5773	470985.23187786344	640
1	5786	471850.780037138643	641
1	5793	472231.843830971079	642
1	5802	473106.338439043644	643
1	5811	473914.849550882387	644
1	5822	474867.756276950272	645
1	5831	475562.870828295158	646
1	5836	475864.049029536577	647
1	5845	476693.92227754	648
1	5854	477728.885221341656	649
1	5867	478702.102003153445	650
1	5876	479158.941931882905	651
1	5883	479939.294054266097	652
1	5890	480302.11727586578	653
1	5899	481392.151396209406	654
1	5908	482013.143862504544	655
1	5919	482640.884778415817	656
1	5926	483279.251330718431	657
1	5939	484578.322025807607	658
1	5944	485223.045989451963	659
1	5957	486309.734013676676	660
1	5964	486707.210872555184	661
1	5973	487142.157567059654	662
1	5980	487793.605505721676	663
1	5989	488281.762280222061	664
1	6002	489618.229928473043	665
1	6009	490116.391743533346	666
1	6018	490899.504215503144	667
1	6027	491788.920017564702	668
1	6036	492572.601895546573	669
1	6047	493313.747949432614	670
1	6054	493821.017872402477	671
1	6061	494544.24097244631	672
1	6074	495652.758646337348	673
1	6081	496200.999817438456	674
1	6088	496778.929817257482	675
1	6101	497881.097443169016	676
1	6110	498725.560999754849	677
1	6119	499580.308890156481	678
1	6126	500290.174887701902	679
1	6135	500786.015884811092	680
1	6142	501362.291033053804	681
1	6155	502750.89795389216	682
1	6160	503151.730157760937	683
1	6169	503967.630379227955	684
1	6182	504875.718849571455	685
1	6189	505540.964965894852	686
1	6198	506479.332324955646	687
1	6205	506888.320723548565	688
1	6214	507510.931744007428	689
1	6225	508328.554266365278	690
1	6234	509157.363035157357	691
1	6243	509754.77804448459	692
1	6252	510564.486694755067	693
1	6261	511130.107415188138	694
1	6270	512128.783876262639	695
1	6281	513035.137908021022	696
1	6286	513350.46125412922	697
1	6297	514260.600999696214	698
1	6304	514713.579576043446	699
1	6315	515325.625735614483	700
1	6324	516015.989694697817	701
1	6331	516837.150170607527	702
1	6340	517481.215158524025	703
1	6353	518446.274450887028	704
1	6360	519167.671916540746	705
1	6369	519649.053389299695	706
1	6376	520168.48423336636	707
1	6389	521607.727448176626	708
1	6396	522104.973338311572	709
1	6405	522980.984239093993	710
1	6412	523629.178824741427	711
1	6425	524451.081051724065	712
1	6434	525114.64212778959	713
1	6441	525530.674784537438	714
1	6448	525975.979130482334	715
1	6459	527343.929239036548	716
1	6470	528264.807808818328	717
1	6475	528659.937522187861	718
1	6484	529437.085353070902	719
1	6493	529821.788617456364	720
1	6502	530687.516931351307	721
1	6513	531701.215943601016	722
1	6524	532579.709845315699	723
1	6533	533456.934221182053	724
1	6542	534221.543008228798	725
1	6551	534840.244448650662	726
1	6558	535470.019656233523	727
1	6567	535891.603020625222	728
1	6574	536567.19107567336	729
1	6583	537045.056703407351	730
1	6592	537879.892031522501	731
1	6601	538588.803672976825	732
1	6610	539656.860275147517	733
1	6621	540501.110632438246	734
1	6628	540856.0255441815	735
1	6639	541761.628379998762	736
1	6650	542873.436937853728	737
1	6655	543514.324941393022	738
1	6664	544105.898186517914	739
1	6677	545029.996519535814	740
1	6684	545701.778080081601	741
1	6695	546588.712225388769	742
1	6704	547303.903404856134	743
1	6711	547735.145850665901	744
1	6720	548448.729182593558	745
1	6731	549307.325378665734	746
1	6738	549996.172958985005	747
1	6749	550954.733927222002	748
1	6754	551416.556160338256	749
1	6765	552279.482170427252	750
1	6776	552919.042804185335	751
1	6783	553419.994443096254	752
1	6790	553725.222436152432	753
1	6801	554776.909411791746	754
1	6808	555669.541844911908	755
1	6819	556390.663268649985	756
1	6826	556775.94064464796	757
1	6835	557391.860225703602	758
1	6848	558850.544376717914	759
1	6857	559716.386469081078	760
1	6864	560423.409597203169	761
1	6873	561133.569218963418	762
1	6880	561870.778047898818	763
1	6889	562725.829257862676	764
1	6898	563539.379617804695	765
1	6907	564134.226789744605	766
1	6918	565408.895352110301	767
1	6927	566191.728084767272	768
1	6934	566724.044015910511	769
1	6943	567609.347851015662	770
1	6952	568318.959787627717	771
1	6961	568914.062581490761	772
1	6974	570065.679084090552	773
1	6981	570511.543357651717	774
1	6990	571584.979716176203	775
1	7001	572521.94767571058	776
1	7006	572864.882618794254	777
1	7015	573803.723763814232	778
1	7024	574518.602333916387	779
1	7033	575256.039776187425	780
1	7044	575901.898174267298	781
1	7051	576301.516104536167	782
1	7064	577676.199949393085	783
1	7073	578480.120320105961	784
1	7078	578862.515208357981	785
1	7091	580019.284494733474	786
1	7098	580528.351618163324	787
1	7105	580866.809216374568	788
1	7116	582087.201740127093	789
1	7125	582783.555870177261	790
1	7134	583377.756121382154	791
1	7143	584460.925232805348	792
1	7150	584987.032105308062	793
1	7161	586051.975037483535	794
1	7168	586438.247955590523	795
1	7179	587475.282822037152	796
1	7190	588354.871808365024	797
1	7199	589115.72245052088	798
1	7204	589946.572651667557	799
1	7213	590504.012701660431	800
1	7226	591463.218604959584	801
1	7231	591992.11695771668	802
1	7244	592984.984455909616	803
1	7251	593529.87646842379	804
1	7258	594010.118583496696	805
1	7271	595236.508979089594	806
1	7278	595666.688520228526	807
1	7287	596525.080866459793	808
1	7290	596955.644735042042	809
1	7307	598095.1749724802	810
1	7316	598852.954626269676	811
1	7325	599731.040573911779	812
1	7330	600106.698109488972	813
1	7341	600811.110798781775	814
1	7350	601565.716770524196	815
1	7359	602043.670346634499	816
1	7370	603075.397833203934	817
1	7379	603810.822719056196	818
1	7386	604190.1314559393	819
1	7393	604737.175127863921	820

