version 2
run Pipelined_3Teachers-25-20190105-10:57:23-7584
attr configname Pipelined_3Teachers
attr datetime 20190105-10:57:23
attr experiment Pipelined_3Teachers
attr inifile ../simulations/omnetpp.ini
attr iterationvars "$0=\"uniform\""
attr iterationvarsf uniform-
attr measurement "$0=\"uniform\""
attr network PipelinedExamSession
attr processid 7584
attr repetition 25
attr replication #25
attr resultdir results
attr runnumber 25
attr seedset 25
param **.teachersNumber 3
param **.answerTimeDistribution "\"uniform\""
param **.minUniform 300
param **.maxUniform 900
param **.scaleLognormal 6.2854
param **.shapeLognormal 0.4724

vector 0 PipelinedExamSession examinationTime:vector ETV
attr source examFinished
vector 1 PipelinedExamSession studentID:vector ETV
attr source student
0	3163	260276.927791256472	1944.1660329234
0	3176	261470.853903936237	2589.6031330805
0	3183	262149.229543050766	2426.8889632076
0	3192	262773.920876858771	2182.1694923099
0	3203	263785.624378127992	2314.7704741918
0	3212	264619.60939499551	2376.5825119335
0	3219	265260.494812158882	2188.2010089699
0	3226	266157.362483907506	2371.7381057795
0	3235	266857.959344889983	2238.3499498945
0	3244	267533.900655945777	2014.3302363809
0	3255	268325.696811592221	1921.5790741146
0	3266	269219.370839232594	2088.5093442164
0	3275	269755.386057682351	2098.5815105494
0	3282	270246.803247369841	1916.8887523469
0	3293	271359.033549902976	2139.6627106704
0	3302	272003.998167486877	2248.6121098045
0	3309	272468.41491493398	1828.7388017401
0	3320	273437.470726668851	2078.4371767659
0	3327	273981.919134361686	1977.9209668748
0	3338	274839.104159362631	2204.8786753323
0	3347	275372.803902486356	1935.3331758175
0	3354	275982.644223561527	1677.4440353271
0	3363	276586.04863802904	1746.9444786664
0	3370	277281.110303057374	1908.306400571
0	3381	278169.274603016691	1999.9286124017
0	3392	279004.473360953869	2259.1114228126
0	3397	279328.003731323423	1908.6009877268
0	3408	280204.192508105205	1900.3551425412
0	3417	280827.470526890846	1822.997165937
0	3424	281162.646170938404	1504.8948932905
0	3433	282254.38726097347	1847.914610384
0	3442	283034.729798650386	2075.03599911
0	3455	283971.998815471323	2176.6107856762
0	3460	284531.678104307519	2014.3117383588
0	3473	285663.130552461388	2395.6553081051
0	3480	286316.075551277044	2344.0767358057
0	3487	286770.353266596812	1995.1888022013
0	3492	287274.083208572136	1610.9526561107
0	3505	288553.174363821763	2026.2778735254
0	3518	289434.478149376827	2085.1714365184
0	3527	290105.498464917782	2012.0661970228
0	3534	290556.944290827978	1663.9539980795
0	3543	291362.90513682181	1928.426987445
0	3554	292056.947771273572	1951.4493063558
0	3561	292613.535289373267	1982.2055654135
0	3568	293497.939025424439	2126.0598912835
0	3581	294495.494035491739	2438.5462642182
0	3590	295278.626229800303	2375.1212975476
0	3597	295890.395569056292	2151.1936711147
0	3604	296518.844754947369	2023.3507194556
0	3615	297353.335895854999	2074.7096660547
0	3622	297991.008484968935	1906.7808967084
0	3631	298449.055542284642	1593.9557222184
0	3640	299513.704964099471	2004.7850870993
0	3653	300211.857962189261	1928.0404596124
0	3658	300553.421523515154	1411.4672643598
0	3667	301028.878010250647	1443.8778829761
0	3680	302522.303912462685	2310.4459502734
0	3687	302877.902134694177	1937.968083797
0	3694	303243.223871989194	1568.5027843807
0	3703	304124.258327716981	1601.9544152543
0	3714	305002.051645237971	1971.4283325244
0	3721	305428.734194487352	1576.7973299604
0	3734	306338.158938707802	1983.970347885
0	3739	306742.52479104327	1612.8759572748
0	3750	307443.746438110266	1825.5005977582
0	3759	308334.900865517575	1996.7419268098
0	3766	308896.753982920218	1846.2012543809
0	3777	309757.393477577734	2015.203156136
0	3784	310316.915101557988	1801.7777653411
0	3795	311654.619768261927	2301.1173369829
0	3804	312126.654668245483	1966.5777005721
0	3813	312642.693827580679	1685.3477695026
0	3824	313801.620280975495	2088.8504562434
0	3833	314602.732767630388	2309.6912892535
0	3842	315387.729679886271	2471.0070138797
0	3849	315795.773304579799	1994.1530236043
0	3860	316696.120810881277	2093.3880432509
0	3865	317034.948959341293	1647.219279455
0	3878	318062.995211407562	2173.4815292526
0	3883	318589.624008676057	1893.5031977948
0	3894	319397.2920086235	2097.9244769085
0	3905	320567.90083637463	2504.9056249671
0	3914	321452.199603198116	2533.2268854138
0	3921	322163.534122193252	2446.0949440487
0	3928	322616.518679726889	2048.6178433523
0	3941	323965.681491885354	2513.4818886872
0	3950	324723.574924282749	2408.8746943977
0	3959	325583.104099798967	2444.4974821061
0	3966	326185.407421505098	2219.7259296197
0	3977	327056.987320818026	2333.4123965353
0	3982	327501.352392230202	1918.2482924312
0	3991	328325.195433804785	2007.3897964787
0	4004	329467.097246088107	2410.1099252701
0	4009	330178.876948496346	2223.127787048
0	4018	330966.970370756481	2323.5576904379
0	4031	331640.383753739317	2173.2865076512
0	4038	332369.768629409392	2097.300257301
0	4047	333251.482581440379	2211.8425990921
0	4058	334100.744990073164	2460.3612363338
0	4065	334641.692796908339	2227.2945417557
0	4072	335149.366206675788	1896.6075918172
0	4083	336373.518384899963	2272.7733948268
0	4090	337052.663788385709	2227.6858926751
0	4101	338075.308727379909	2374.4233039208
0	4112	338887.041259137934	2404.7642891295
0	4121	339489.082222245654	2204.3755250517
0	4126	340034.459922881817	1936.578270793
0	4135	340597.105307411423	1710.0640482735
0	4144	341165.026146965121	1675.9439247195
0	4153	342349.276541546007	2222.5594349205
0	4166	343424.758884916102	2431.2428500503
0	4171	343829.743342101594	1940.8641682472
0	4182	344860.966370534172	2258.3015366457
0	4189	345398.965264158344	1974.2063792422
0	4200	346506.108390307074	2382.2183246724
0	4211	347372.311206255128	2353.3912092447
0	4216	347947.338216891532	2094.1156885587
0	4225	348709.270411776398	2166.7340734508
0	4238	349780.82151026467	2408.5103040095
0	4247	350434.986555436646	2318.0719120894
0	4256	351241.602140385678	2344.2958564963
0	4265	351860.830798046684	2080.009287782
0	4272	352370.618447335458	1935.6318918988
0	4279	352979.038157779745	1737.4360173941
0	4288	353431.887076143196	1571.0562780965
0	4301	354575.730237923582	2061.5095672198
0	4310	355226.30454422908	2021.5302428696
0	4317	356054.111434333046	2282.0957922377
0	4328	356853.908931138014	2278.1786932144
0	4337	357431.907717045417	2205.6031728163
0	4344	358030.5316292681	1972.4693862721
0	4351	358402.242684178074	1548.3337530401
0	4360	358856.323349336182	1424.4156322908
0	4373	360108.503546286394	2009.6772904973
0	4378	360567.726769298335	1780.9735405259
0	4389	361601.224006293361	2065.1168775279
0	4398	362380.284132342806	2271.7805860564
0	4407	363099.720271211138	2283.2844955847
0	4414	363618.23531985285	1904.5130528044
0	4425	364429.058824852129	1929.3569879606
0	4432	364762.517057172974	1364.0593349934
0	4441	365854.755517328179	1903.1736684032
0	4454	366917.718684207669	2271.9110466074
0	4461	367433.607070986202	2048.9221029449
0	4468	367923.41820462609	1643.5774108395
0	4477	368320.138129312567	1402.4194451049
0	4488	369561.85221062044	1971.5343901422
0	4497	370160.793292941548	2009.0374491178
0	4506	370760.582081973575	2037.9959852435
0	4513	371487.852289387979	1866.4102584589
0	4524	372230.554042104653	1902.4671345949
0	4535	372963.065114663935	1985.3870072868
0	4544	373785.140564432389	2080.5177393369
0	4553	374568.739982787541	2142.9712323938
0	4558	374962.923550559229	1999.8584358953
0	4567	375699.935519602171	1914.7949551698
0	4576	376631.465062173105	2062.7250793856
0	4585	377356.209789589069	2012.113905279
0	4590	377753.718611598036	1629.8827911727
0	4603	378880.284391483313	1878.5912145395
0	4612	379644.305938622005	1758.9232769329
0	4625	380748.226335737877	2192.5896005239
0	4634	381435.005520796426	2102.8128204402
0	4639	381895.376411173515	1810.7268847525
0	4648	382546.750643989094	1798.5243082512
0	4661	383802.809634944447	2367.804114148
0	4668	384369.548480166145	2136.1341248732
0	4677	385468.18081964741	2381.2705563381
0	4686	386029.974754108139	2227.1651191637
0	4693	386660.672733234265	2015.8358076587
0	4706	387704.00092354978	2161.3188161049
0	4711	388144.568923814246	2078.0436705798
0	4720	388994.089226005623	2148.0010874569
0	4733	389842.951919697249	2138.9509961475
0	4742	390386.820362415189	1793.0514469743
0	4749	390840.456368587935	1540.5487693381
0	4756	391298.800777411112	1455.8488577139
0	4767	392199.818103248277	1812.9977408331
0	4778	393235.634969780246	2141.8014066294
0	4783	393899.952929746384	2146.2927805725
0	4792	394645.658586267406	2261.1817977391
0	4801	395548.618977796312	2312.9840080161
0	4812	396471.883816737706	2357.9376342706
0	4823	397278.143455646956	2335.6328520924
0	4830	397776.200016634563	2117.0581609011
0	4839	398772.320342855552	2270.5604373012
0	4846	399260.530475294241	1982.3870196473
0	4855	399846.214874228486	1729.0557025932
0	4864	400515.40092537182	1685.4010853916
0	4875	401410.561323445314	1860.6808286626
0	4882	402130.354939727136	1710.5474203359
0	4893	403324.385596951493	2379.0751851629
0	4900	403746.999553777301	2026.6850381624
0	4909	404524.671707348922	1997.112292517
0	4922	405249.773932853738	1834.1064895503
0	4927	405620.063754636819	1589.3704849295
0	4938	406452.93426685969	1709.8711595871
0	4947	407332.522798609014	2082.7488657553
0	4954	407842.456074804093	2028.3597143367
0	4967	408827.223333343889	2346.9703073613
0	4976	409510.328413685809	2175.2692842856
0	4985	410313.606353988896	2365.1562958024
0	4990	410736.182729853342	1908.9593965095
0	4999	411367.60470103475	1857.2762873489
0	5012	412440.356828458632	2126.7504744697
0	5017	412766.177935106705	1767.6226682961
0	5028	414019.264602893988	2392.7511147223
0	5037	414780.466814758281	2340.1099862996
0	5044	415367.07787639464	2152.6819818188
0	5053	416193.053315766181	2099.3436395656
0	5064	416915.461775567408	1933.5113561712
0	5071	417680.066578695576	1945.1810586266
0	5080	418618.730713846188	2030.8759530075
0	5091	419402.477260446202	2027.8520706575
0	5098	419966.01634486581	2033.0498681869
0	5107	420603.099104762103	1813.2991019636
0	5118	421573.727957205873	1980.8237785008
0	5129	422675.057352008325	2473.1197767891
0	5138	423393.2489326224	2362.048646668
0	5143	423789.456123020527	1893.41522092
0	5152	424579.103073338073	1904.0457213297
0	5165	425600.853050407049	2207.6041177846
0	5174	426340.048154862624	2093.6323920731
0	5181	426906.607190938693	2095.2780644875
0	5192	427759.852607036036	2158.999556629
0	5199	428359.925940027487	2019.8777851649
0	5210	429069.553241366547	2069.4585653488
0	5215	429624.536866648149	1864.6842596121
0	5224	430625.247405516011	2212.0468318462
0	5235	431337.466073920976	2267.9128325544
0	5244	432192.262906674322	2244.9727451429
0	5251	432659.7898480017	1894.4184805267
0	5256	433121.247549494754	1605.7926549576
0	5271	434141.249798750531	1804.7862386797
0	5280	434734.199794800978	1571.1611852981
0	5287	435362.437449814778	1815.9827452619
0	5296	435800.208340818088	1474.0570331924
0	5307	436361.50091453458	1566.3005147595
0	5316	437179.421570990261	1701.0061504785
0	5325	438010.436572367352	2039.5935160574
0	5334	438597.128108236965	2042.1655944083
0	5341	439093.240012507912	1673.0315003078
0	5350	439762.536199903142	1515.30876467
0	5361	440886.07811098921	2133.0674921628
0	5368	441200.261616613743	1893.8284914941
0	5377	442242.806073976707	2065.2079407591
0	5390	443217.231014370945	2148.0147112627
0	5397	443719.532912643653	1959.5180570148
0	5406	444431.274611782309	1982.6536278706
0	5417	445284.115189919275	2066.8841755483
0	5422	445671.532412990955	1916.4931202307
0	5431	446510.908979270634	2023.6620071344
0	5440	447274.372253939537	1990.2570640203
0	5451	448082.907202653614	1955.6456983555
0	5458	448881.356717878979	2200.9482127614
0	5467	449329.572415631291	1912.7958620433
0	5476	450079.141468601328	1778.2170143444
0	5485	450920.699952542809	1919.0060396679
0	5490	451422.156527778161	1521.133177774
0	5503	452452.198190242079	1788.3911505807
0	5512	453131.99839973825	1616.7483381461
0	5523	454011.305008409572	1869.3658523262
0	5532	454396.213917341111	1509.5882586669
0	5541	455205.870507052196	1967.7735012956
0	5552	456062.116057472331	2039.889476588
0	5557	456579.972904594643	2123.2729971875
0	5570	457650.502510042889	2370.0506023597
0	5579	458368.028166051982	2305.9121085797
0	5588	459191.608940390898	2280.5520957336
0	5593	459510.581626044614	1860.0791160017
0	5606	460700.194611260695	2332.1664452087
0	5615	461461.101691285176	2269.4927508943
0	5622	461937.806049920646	1868.205307005
0	5633	463122.471066238386	2422.2764549777
0	5640	463821.625108178732	2360.5234168936
0	5649	464623.432157468079	2389.5436061081
0	5656	465220.386726502357	2097.915660264
0	5669	466135.59618797156	2191.9265555218
0	5678	467023.832697607605	2345.3483966645
0	5687	467884.602539800136	2517.4591574818
0	5692	468350.772120337962	2215.1759323664
0	5701	468802.702071564301	1778.8693739567
0	5712	469809.048979310348	1924.4464395102
0	5719	470163.229006156355	1720.8179209381
0	5728	470713.861420797213	1520.9881001618
0	5737	471689.927298808499	1861.9044274092
0	5746	472260.351935215324	1637.7809235826
0	5757	473148.26506152752	1794.6701654233
0	5764	473672.039024205907	1914.9076256901
0	5775	474391.034483816504	1825.6650859024
0	5784	475093.668253999233	1867.7011011634
0	5793	475920.233129197761	2104.1129705496
0	5800	476273.269577091589	1703.1278138515
0	5813	477587.579453922839	2487.9009480122
0	5818	477923.445650562675	1948.2485724147
0	5827	478438.321089092673	1628.4773147665
0	5836	479307.563817780496	1719.9843638577
0	5845	480105.301570007609	1741.609482374
0	5858	481041.29310292195	1897.1764225513
0	5863	481420.704552624407	1645.7342260983
0	5872	481842.056372109833	1191.3439020049
0	5883	482880.193918151813	1838.9008152299
0	5890	483312.806737376409	1825.5612961482
0	5899	484090.421009575979	1906.0063005891
0	5912	484794.365506852077	1824.7935621534
0	5921	485642.329991888286	2050.623367494
0	5926	486064.449056983025	1722.2226717509
0	5935	487102.034333115475	2307.6688262634
0	5948	487920.827308343754	2278.4973164555
0	5955	488588.201844831959	2126.8958876375
0	5964	489301.344119897143	1953.4298665356
0	5975	490164.043148746745	2243.215840403
0	5984	490831.308574648605	2218.0515109096
0	5993	491580.078464141147	2271.8831755221
0	5998	491907.498964341389	1743.4558155946
0	6003	492345.886068278955	1514.5774936303
0	6016	493591.763448994638	2011.6849848535
0	6025	494667.367047071489	2212.0422292035
0	6034	495427.255925210224	2101.1407661252
0	6045	496415.458207950028	2237.0164087974
0	6052	496863.486681645768	1882.1241649333
0	6065	498202.39467811774	2372.7907716762
0	6074	498954.507373971897	2349.6111751534
0	6081	499538.840713771093	2226.4770140871
0	6088	500219.268522039089	2016.8738439213
0	6099	501337.353031849522	2382.8456578776
0	6108	501806.326923938502	1995.6868857611
0	6115	502436.572949588333	1727.0127244759
0	6128	503436.423954879899	1994.1926883068
0	6135	503871.815365646068	1914.4860517234
0	6144	504597.613200685043	1915.8479578793
0	6151	504973.78068887632	1537.3567339964
0	6160	506010.768950544331	2090.7622538041
0	6173	507229.339608270709	2583.2061083056
0	6180	507937.471104925532	2420.9447261877
0	6187	508471.447820914943	2069.3368939217
0	6196	509321.013498259743	2091.673889989
0	6205	509934.351160191035	1923.6448690295
0	6218	511083.446764200961	2327.2953670006
0	6225	511534.73622933965	1914.5589432679
0	6232	512422.874335013365	1918.4209140949
0	6243	513290.214351005888	2206.7675868049
0	6254	514030.022106645665	2405.3878198843
0	6259	514685.126811359114	2170.5786039121
0	6270	515244.627930689639	1843.8590942882
0	6277	515562.063603289461	1532.0414966438
0	6288	516540.63895354051	1648.7518516369
0	6297	517272.599254455454	1986.7355708499
0	6306	518010.035038646347	1852.2380357143
0	6315	518560.874023474789	1985.9237523749
0	6326	519539.748180611096	2193.392667314
0	6333	520127.061984222419	1970.2912245411
0	6344	521142.98145244833	2476.8659665715
0	6351	521798.160152602977	2258.4119719919
0	6362	522876.431195531077	2615.6441805884
0	6367	523407.526438264213	2264.5449858159
0	6376	523923.241357645056	1920.4337187577
0	6387	525066.030986560546	2189.5997910295
0	6398	525893.907848792188	2193.074305309
0	6407	526668.142532603853	2156.1754298396
0	6416	527491.621516132765	2181.553137023
0	6425	528372.984370077067	2479.0765212849
0	6434	529160.960458125957	2492.8179255221
0	6441	529653.906921157651	2162.2854050249
0	6450	530422.181489830875	2049.1971197538
0	6459	531010.063455859238	1849.1029977333
0	6466	531717.243026755789	1762.2138345614
0	6475	532179.681935627052	1755.8605005965
0	6488	533313.096588570663	2077.2448190488
0	6497	534080.038689728865	2220.3665421344
0	6506	534936.147047951856	2482.1150782518
0	6515	535739.615458343217	2426.5188697726
0	6522	536288.713461114133	2208.6747713853
0	6529	536991.965388972352	2055.8183410205
0	6542	538071.354587981517	2331.7391296383
0	6551	538652.912385994608	2296.7442744412
0	6558	539412.311387714038	2176.7785116099
0	6565	540113.285815296734	2041.9312273152
0	6576	541089.267003815661	2436.3546178211
0	6583	541402.816834207664	1865.2935384773
0	6594	542403.230821341316	1996.2432588916
0	6603	543177.434026077429	1931.0124807525
0	6610	543487.240735860581	1719.4669893477
0	6619	544325.433602510059	1708.5465213284
0	6628	545242.74119446058	2036.6787021048
0	6639	546268.988260673398	2311.4397120662
0	6648	546951.252669515128	2103.1687407754
0	6655	547755.090685095678	2213.6104846839
0	6666	548564.118217304389	2210.9223062173
0	6675	549282.556588808115	2263.491510367
0	6682	550047.059346456119	2259.3217676505
0	6693	550762.512260349507	2101.3922711369
0	6700	551518.064921535591	2186.1895814538
0	6713	552466.70348891061	2256.8284694105
0	6722	553254.958516079972	2413.84254531
0	6729	553857.530416594858	2196.3837869
0	6736	554365.209795394952	1898.5063064843
0	6745	555304.439318273256	2049.4808021933
0	6754	556082.622249238232	2067.9701832589
0	6765	556852.160120615774	1953.0958123505
0	6772	557246.651547169351	1495.2473133802
0	6783	558285.837024310642	1783.7034559809
0	6790	558640.950073627793	1445.7777792122
0	6799	559448.857898125463	1838.2741883397
0	6810	560473.126052180343	2128.1004007906
0	6821	561210.169538995289	2248.6526822671
0	6830	562078.497590264343	2317.2662860248
0	6835	562404.050009697713	1867.4604662228
0	6848	563460.134427342602	2249.9648883473
0	6857	564082.414053054565	2003.9164627902
0	6864	564621.267480310091	1953.67906834
0	6871	565071.126153040716	1610.9917256981
0	6880	565782.352401036808	1699.9383479822
0	6889	566628.626634227151	1929.8804629594
0	6898	567142.137805279384	1676.8986550625
0	6907	567948.277069442014	1881.5726541448
0	6918	569305.953906336839	2343.3677088004
0	6925	569610.691946279297	1922.7726583835
0	6934	570207.570102391805	1731.7008205689
0	6947	571376.177394250448	2053.1934678555
0	6954	571960.786619223695	2077.5683459826
0	6963	572660.751601075794	2036.2737444229
0	6974	573282.017824938561	1905.8404306881
0	6983	573925.231085345189	1941.936751781
0	6992	574628.44141786922	1874.2926523089
0	6999	575108.096006093586	1826.078181155
0	7010	575861.331380205269	1936.1002948601
0	7017	576402.845625160302	1774.4042072911
0	7026	577449.42861632448	2258.8789191563
0	7033	577953.082175692584	2091.7507954873
0	7042	578624.16147873741	1878.4386271611
0	7051	579261.478321161162	1623.0979164597
0	7060	580545.024625305127	2032.9994013067
0	7069	580961.570189986419	1906.7603688687
0	7082	581829.176031891297	2013.9805843122
0	7089	582584.534566244151	1887.1818289161
0	7096	583061.800275463651	1835.8198303264
0	7101	583561.598824337165	1732.4227924459
0	7116	584652.854613075074	1945.191367669
0	7127	585757.853046571877	2192.8267755546
0	7136	586472.994164144661	2418.8741100021
0	7141	586906.239617010619	2025.3774996847
0	7152	587515.039937105071	1757.1868905332
0	7161	588276.191079989117	1803.1969158445
0	7170	588902.570608863648	1866.8972482905
0	7177	589634.134881198447	1981.1823285185
0	7190	590590.231065172743	2229.8451634124
0	7199	591387.317249458324	2216.5471452288
0	7206	592064.647649740841	2171.1572015192
0	7215	592772.43035179567	2182.1992866229
0	7222	593255.341140227433	1868.0238907691
0	7231	593729.365298990201	1597.1626875456
0	7240	594743.429786665407	1925.0705233309
0	7253	596034.785159071949	2335.7054797467
0	7260	596542.139537259978	2273.969489336
0	7267	596993.932919483674	1841.9480080716
0	7278	598047.891215561	2013.1060564891
0	7285	598625.784461014015	2002.2742683068
0	7298	599387.706468952863	2008.6745783687
0	7307	600096.192105067937	1867.7951987833
0	7312	600455.662595573856	1604.7744125593
0	7323	601427.81444191937	2040.1079729665
0	7334	602322.139476612254	2225.9473715443
0	7339	602869.431709824174	2022.9252111632
0	7350	603877.012632228477	2443.9920934383
0	7361	604737.275839783294	2415.136363171
1	3163	260276.927791256472	350
1	3176	261470.853903936237	351
1	3183	262149.229543050766	352
1	3192	262773.920876858771	353
1	3203	263785.624378127992	354
1	3212	264619.60939499551	355
1	3219	265260.494812158882	356
1	3226	266157.362483907506	357
1	3235	266857.959344889983	358
1	3244	267533.900655945777	359
1	3255	268325.696811592221	360
1	3266	269219.370839232594	361
1	3275	269755.386057682351	362
1	3282	270246.803247369841	363
1	3293	271359.033549902976	364
1	3302	272003.998167486877	365
1	3309	272468.41491493398	366
1	3320	273437.470726668851	367
1	3327	273981.919134361686	368
1	3338	274839.104159362631	369
1	3347	275372.803902486356	370
1	3354	275982.644223561527	371
1	3363	276586.04863802904	372
1	3370	277281.110303057374	373
1	3381	278169.274603016691	374
1	3392	279004.473360953869	375
1	3397	279328.003731323423	376
1	3408	280204.192508105205	377
1	3417	280827.470526890846	378
1	3424	281162.646170938404	379
1	3433	282254.38726097347	380
1	3442	283034.729798650386	381
1	3455	283971.998815471323	382
1	3460	284531.678104307519	383
1	3473	285663.130552461388	384
1	3480	286316.075551277044	385
1	3487	286770.353266596812	386
1	3492	287274.083208572136	387
1	3505	288553.174363821763	388
1	3518	289434.478149376827	389
1	3527	290105.498464917782	390
1	3534	290556.944290827978	391
1	3543	291362.90513682181	392
1	3554	292056.947771273572	393
1	3561	292613.535289373267	394
1	3568	293497.939025424439	395
1	3581	294495.494035491739	396
1	3590	295278.626229800303	397
1	3597	295890.395569056292	398
1	3604	296518.844754947369	399
1	3615	297353.335895854999	400
1	3622	297991.008484968935	401
1	3631	298449.055542284642	402
1	3640	299513.704964099471	403
1	3653	300211.857962189261	404
1	3658	300553.421523515154	405
1	3667	301028.878010250647	406
1	3680	302522.303912462685	407
1	3687	302877.902134694177	408
1	3694	303243.223871989194	409
1	3703	304124.258327716981	410
1	3714	305002.051645237971	411
1	3721	305428.734194487352	412
1	3734	306338.158938707802	413
1	3739	306742.52479104327	414
1	3750	307443.746438110266	415
1	3759	308334.900865517575	416
1	3766	308896.753982920218	417
1	3777	309757.393477577734	418
1	3784	310316.915101557988	419
1	3795	311654.619768261927	420
1	3804	312126.654668245483	421
1	3813	312642.693827580679	422
1	3824	313801.620280975495	423
1	3833	314602.732767630388	424
1	3842	315387.729679886271	425
1	3849	315795.773304579799	426
1	3860	316696.120810881277	427
1	3865	317034.948959341293	428
1	3878	318062.995211407562	429
1	3883	318589.624008676057	430
1	3894	319397.2920086235	431
1	3905	320567.90083637463	432
1	3914	321452.199603198116	433
1	3921	322163.534122193252	434
1	3928	322616.518679726889	435
1	3941	323965.681491885354	436
1	3950	324723.574924282749	437
1	3959	325583.104099798967	438
1	3966	326185.407421505098	439
1	3977	327056.987320818026	440
1	3982	327501.352392230202	441
1	3991	328325.195433804785	442
1	4004	329467.097246088107	443
1	4009	330178.876948496346	444
1	4018	330966.970370756481	445
1	4031	331640.383753739317	446
1	4038	332369.768629409392	447
1	4047	333251.482581440379	448
1	4058	334100.744990073164	449
1	4065	334641.692796908339	450
1	4072	335149.366206675788	451
1	4083	336373.518384899963	452
1	4090	337052.663788385709	453
1	4101	338075.308727379909	454
1	4112	338887.041259137934	455
1	4121	339489.082222245654	456
1	4126	340034.459922881817	457
1	4135	340597.105307411423	458
1	4144	341165.026146965121	459
1	4153	342349.276541546007	460
1	4166	343424.758884916102	461
1	4171	343829.743342101594	462
1	4182	344860.966370534172	463
1	4189	345398.965264158344	464
1	4200	346506.108390307074	465
1	4211	347372.311206255128	466
1	4216	347947.338216891532	467
1	4225	348709.270411776398	468
1	4238	349780.82151026467	469
1	4247	350434.986555436646	470
1	4256	351241.602140385678	471
1	4265	351860.830798046684	472
1	4272	352370.618447335458	473
1	4279	352979.038157779745	474
1	4288	353431.887076143196	475
1	4301	354575.730237923582	476
1	4310	355226.30454422908	477
1	4317	356054.111434333046	478
1	4328	356853.908931138014	479
1	4337	357431.907717045417	480
1	4344	358030.5316292681	481
1	4351	358402.242684178074	482
1	4360	358856.323349336182	483
1	4373	360108.503546286394	484
1	4378	360567.726769298335	485
1	4389	361601.224006293361	486
1	4398	362380.284132342806	487
1	4407	363099.720271211138	488
1	4414	363618.23531985285	489
1	4425	364429.058824852129	490
1	4432	364762.517057172974	491
1	4441	365854.755517328179	492
1	4454	366917.718684207669	493
1	4461	367433.607070986202	494
1	4468	367923.41820462609	495
1	4477	368320.138129312567	496
1	4488	369561.85221062044	497
1	4497	370160.793292941548	498
1	4506	370760.582081973575	499
1	4513	371487.852289387979	500
1	4524	372230.554042104653	501
1	4535	372963.065114663935	502
1	4544	373785.140564432389	503
1	4553	374568.739982787541	504
1	4558	374962.923550559229	505
1	4567	375699.935519602171	506
1	4576	376631.465062173105	507
1	4585	377356.209789589069	508
1	4590	377753.718611598036	509
1	4603	378880.284391483313	510
1	4612	379644.305938622005	511
1	4625	380748.226335737877	512
1	4634	381435.005520796426	513
1	4639	381895.376411173515	514
1	4648	382546.750643989094	515
1	4661	383802.809634944447	516
1	4668	384369.548480166145	517
1	4677	385468.18081964741	518
1	4686	386029.974754108139	519
1	4693	386660.672733234265	520
1	4706	387704.00092354978	521
1	4711	388144.568923814246	522
1	4720	388994.089226005623	523
1	4733	389842.951919697249	524
1	4742	390386.820362415189	525
1	4749	390840.456368587935	526
1	4756	391298.800777411112	527
1	4767	392199.818103248277	528
1	4778	393235.634969780246	529
1	4783	393899.952929746384	530
1	4792	394645.658586267406	531
1	4801	395548.618977796312	532
1	4812	396471.883816737706	533
1	4823	397278.143455646956	534
1	4830	397776.200016634563	535
1	4839	398772.320342855552	536
1	4846	399260.530475294241	537
1	4855	399846.214874228486	538
1	4864	400515.40092537182	539
1	4875	401410.561323445314	540
1	4882	402130.354939727136	541
1	4893	403324.385596951493	542
1	4900	403746.999553777301	543
1	4909	404524.671707348922	544
1	4922	405249.773932853738	545
1	4927	405620.063754636819	546
1	4938	406452.93426685969	547
1	4947	407332.522798609014	548
1	4954	407842.456074804093	549
1	4967	408827.223333343889	550
1	4976	409510.328413685809	551
1	4985	410313.606353988896	552
1	4990	410736.182729853342	553
1	4999	411367.60470103475	554
1	5012	412440.356828458632	555
1	5017	412766.177935106705	556
1	5028	414019.264602893988	557
1	5037	414780.466814758281	558
1	5044	415367.07787639464	559
1	5053	416193.053315766181	560
1	5064	416915.461775567408	561
1	5071	417680.066578695576	562
1	5080	418618.730713846188	563
1	5091	419402.477260446202	564
1	5098	419966.01634486581	565
1	5107	420603.099104762103	566
1	5118	421573.727957205873	567
1	5129	422675.057352008325	568
1	5138	423393.2489326224	569
1	5143	423789.456123020527	570
1	5152	424579.103073338073	571
1	5165	425600.853050407049	572
1	5174	426340.048154862624	573
1	5181	426906.607190938693	574
1	5192	427759.852607036036	575
1	5199	428359.925940027487	576
1	5210	429069.553241366547	577
1	5215	429624.536866648149	578
1	5224	430625.247405516011	579
1	5235	431337.466073920976	580
1	5244	432192.262906674322	581
1	5251	432659.7898480017	582
1	5256	433121.247549494754	583
1	5271	434141.249798750531	584
1	5280	434734.199794800978	585
1	5287	435362.437449814778	586
1	5296	435800.208340818088	587
1	5307	436361.50091453458	588
1	5316	437179.421570990261	589
1	5325	438010.436572367352	590
1	5334	438597.128108236965	591
1	5341	439093.240012507912	592
1	5350	439762.536199903142	593
1	5361	440886.07811098921	594
1	5368	441200.261616613743	595
1	5377	442242.806073976707	596
1	5390	443217.231014370945	597
1	5397	443719.532912643653	598
1	5406	444431.274611782309	599
1	5417	445284.115189919275	600
1	5422	445671.532412990955	601
1	5431	446510.908979270634	602
1	5440	447274.372253939537	603
1	5451	448082.907202653614	604
1	5458	448881.356717878979	605
1	5467	449329.572415631291	606
1	5476	450079.141468601328	607
1	5485	450920.699952542809	608
1	5490	451422.156527778161	609
1	5503	452452.198190242079	610
1	5512	453131.99839973825	611
1	5523	454011.305008409572	612
1	5532	454396.213917341111	613
1	5541	455205.870507052196	614
1	5552	456062.116057472331	615
1	5557	456579.972904594643	616
1	5570	457650.502510042889	617
1	5579	458368.028166051982	618
1	5588	459191.608940390898	619
1	5593	459510.581626044614	620
1	5606	460700.194611260695	621
1	5615	461461.101691285176	622
1	5622	461937.806049920646	623
1	5633	463122.471066238386	624
1	5640	463821.625108178732	625
1	5649	464623.432157468079	626
1	5656	465220.386726502357	627
1	5669	466135.59618797156	628
1	5678	467023.832697607605	629
1	5687	467884.602539800136	630
1	5692	468350.772120337962	631
1	5701	468802.702071564301	632
1	5712	469809.048979310348	633
1	5719	470163.229006156355	634
1	5728	470713.861420797213	635
1	5737	471689.927298808499	636
1	5746	472260.351935215324	637
1	5757	473148.26506152752	638
1	5764	473672.039024205907	639
1	5775	474391.034483816504	640
1	5784	475093.668253999233	641
1	5793	475920.233129197761	642
1	5800	476273.269577091589	643
1	5813	477587.579453922839	644
1	5818	477923.445650562675	645
1	5827	478438.321089092673	646
1	5836	479307.563817780496	647
1	5845	480105.301570007609	648
1	5858	481041.29310292195	649
1	5863	481420.704552624407	650
1	5872	481842.056372109833	651
1	5883	482880.193918151813	652
1	5890	483312.806737376409	653
1	5899	484090.421009575979	654
1	5912	484794.365506852077	655
1	5921	485642.329991888286	656
1	5926	486064.449056983025	657
1	5935	487102.034333115475	658
1	5948	487920.827308343754	659
1	5955	488588.201844831959	660
1	5964	489301.344119897143	661
1	5975	490164.043148746745	662
1	5984	490831.308574648605	663
1	5993	491580.078464141147	664
1	5998	491907.498964341389	665
1	6003	492345.886068278955	666
1	6016	493591.763448994638	667
1	6025	494667.367047071489	668
1	6034	495427.255925210224	669
1	6045	496415.458207950028	670
1	6052	496863.486681645768	671
1	6065	498202.39467811774	672
1	6074	498954.507373971897	673
1	6081	499538.840713771093	674
1	6088	500219.268522039089	675
1	6099	501337.353031849522	676
1	6108	501806.326923938502	677
1	6115	502436.572949588333	678
1	6128	503436.423954879899	679
1	6135	503871.815365646068	680
1	6144	504597.613200685043	681
1	6151	504973.78068887632	682
1	6160	506010.768950544331	683
1	6173	507229.339608270709	684
1	6180	507937.471104925532	685
1	6187	508471.447820914943	686
1	6196	509321.013498259743	687
1	6205	509934.351160191035	688
1	6218	511083.446764200961	689
1	6225	511534.73622933965	690
1	6232	512422.874335013365	691
1	6243	513290.214351005888	692
1	6254	514030.022106645665	693
1	6259	514685.126811359114	694
1	6270	515244.627930689639	695
1	6277	515562.063603289461	696
1	6288	516540.63895354051	697
1	6297	517272.599254455454	698
1	6306	518010.035038646347	699
1	6315	518560.874023474789	700
1	6326	519539.748180611096	701
1	6333	520127.061984222419	702
1	6344	521142.98145244833	703
1	6351	521798.160152602977	704
1	6362	522876.431195531077	705
1	6367	523407.526438264213	706
1	6376	523923.241357645056	707
1	6387	525066.030986560546	708
1	6398	525893.907848792188	709
1	6407	526668.142532603853	710
1	6416	527491.621516132765	711
1	6425	528372.984370077067	712
1	6434	529160.960458125957	713
1	6441	529653.906921157651	714
1	6450	530422.181489830875	715
1	6459	531010.063455859238	716
1	6466	531717.243026755789	717
1	6475	532179.681935627052	718
1	6488	533313.096588570663	719
1	6497	534080.038689728865	720
1	6506	534936.147047951856	721
1	6515	535739.615458343217	722
1	6522	536288.713461114133	723
1	6529	536991.965388972352	724
1	6542	538071.354587981517	725
1	6551	538652.912385994608	726
1	6558	539412.311387714038	727
1	6565	540113.285815296734	728
1	6576	541089.267003815661	729
1	6583	541402.816834207664	730
1	6594	542403.230821341316	731
1	6603	543177.434026077429	732
1	6610	543487.240735860581	733
1	6619	544325.433602510059	734
1	6628	545242.74119446058	735
1	6639	546268.988260673398	736
1	6648	546951.252669515128	737
1	6655	547755.090685095678	738
1	6666	548564.118217304389	739
1	6675	549282.556588808115	740
1	6682	550047.059346456119	741
1	6693	550762.512260349507	742
1	6700	551518.064921535591	743
1	6713	552466.70348891061	744
1	6722	553254.958516079972	745
1	6729	553857.530416594858	746
1	6736	554365.209795394952	747
1	6745	555304.439318273256	748
1	6754	556082.622249238232	749
1	6765	556852.160120615774	750
1	6772	557246.651547169351	751
1	6783	558285.837024310642	752
1	6790	558640.950073627793	753
1	6799	559448.857898125463	754
1	6810	560473.126052180343	755
1	6821	561210.169538995289	756
1	6830	562078.497590264343	757
1	6835	562404.050009697713	758
1	6848	563460.134427342602	759
1	6857	564082.414053054565	760
1	6864	564621.267480310091	761
1	6871	565071.126153040716	762
1	6880	565782.352401036808	763
1	6889	566628.626634227151	764
1	6898	567142.137805279384	765
1	6907	567948.277069442014	766
1	6918	569305.953906336839	767
1	6925	569610.691946279297	768
1	6934	570207.570102391805	769
1	6947	571376.177394250448	770
1	6954	571960.786619223695	771
1	6963	572660.751601075794	772
1	6974	573282.017824938561	773
1	6983	573925.231085345189	774
1	6992	574628.44141786922	775
1	6999	575108.096006093586	776
1	7010	575861.331380205269	777
1	7017	576402.845625160302	778
1	7026	577449.42861632448	779
1	7033	577953.082175692584	780
1	7042	578624.16147873741	781
1	7051	579261.478321161162	782
1	7060	580545.024625305127	783
1	7069	580961.570189986419	784
1	7082	581829.176031891297	785
1	7089	582584.534566244151	786
1	7096	583061.800275463651	787
1	7101	583561.598824337165	788
1	7116	584652.854613075074	789
1	7127	585757.853046571877	790
1	7136	586472.994164144661	791
1	7141	586906.239617010619	792
1	7152	587515.039937105071	793
1	7161	588276.191079989117	794
1	7170	588902.570608863648	795
1	7177	589634.134881198447	796
1	7190	590590.231065172743	797
1	7199	591387.317249458324	798
1	7206	592064.647649740841	799
1	7215	592772.43035179567	800
1	7222	593255.341140227433	801
1	7231	593729.365298990201	802
1	7240	594743.429786665407	803
1	7253	596034.785159071949	804
1	7260	596542.139537259978	805
1	7267	596993.932919483674	806
1	7278	598047.891215561	807
1	7285	598625.784461014015	808
1	7298	599387.706468952863	809
1	7307	600096.192105067937	810
1	7312	600455.662595573856	811
1	7323	601427.81444191937	812
1	7334	602322.139476612254	813
1	7339	602869.431709824174	814
1	7350	603877.012632228477	815
1	7361	604737.275839783294	816

