version 2
run Pipelined_3Teachers-75-20190105-10:57:35-3604
attr configname Pipelined_3Teachers
attr datetime 20190105-10:57:35
attr experiment Pipelined_3Teachers
attr inifile ../simulations/omnetpp.ini
attr iterationvars "$0=\"uniform\""
attr iterationvarsf uniform-
attr measurement "$0=\"uniform\""
attr network PipelinedExamSession
attr processid 3604
attr repetition 75
attr replication #75
attr resultdir results
attr runnumber 75
attr seedset 75
param **.teachersNumber 3
param **.answerTimeDistribution "\"uniform\""
param **.minUniform 300
param **.maxUniform 900
param **.scaleLognormal 6.2854
param **.shapeLognormal 0.4724

vector 0 PipelinedExamSession examinationTime:vector ETV
attr source examFinished
vector 1 PipelinedExamSession studentID:vector ETV
attr source student
0	3167	260536.005457956358	2476.8846362829
0	3174	261137.852784292787	2271.744208876
0	3181	261579.561020387351	1938.3444431238
0	3190	262189.9171982892	1653.9117403328
0	3201	263346.049013268216	2093.3097270783
0	3210	263818.97099912168	1844.3998657633
0	3219	264677.814918570234	1925.8212609217
0	3230	265811.598138744026	2453.7251999136
0	3237	266191.852666111677	2142.7503263578
0	3240	266546.516561508193	1600.2163421363
0	3253	267903.882117010668	2092.2839782666
0	3262	269025.161951221541	2324.7133612633
0	3273	269712.882865453153	2147.1895717084
0	3282	270300.529459957048	1931.6179670859
0	3291	271064.101367583513	1927.9075071216
0	3298	271747.406909242287	1917.3185667023
0	3307	272414.573538349957	1763.0491131451
0	3320	273761.34963347578	2410.3876284789
0	3329	274613.885286636665	2501.3919593766
0	3338	275362.521640956416	2491.6905317456
0	3347	276256.652644928559	2495.3030114528
0	3354	276885.68876003848	2271.8034734018
0	3363	277761.30660460332	2398.7849636469
0	3372	278387.983142863974	2131.3304979354
0	3379	279200.239952327699	2292.9428008385
0	3390	280073.703343933463	2307.5659513939
0	3401	280905.017121462166	2346.1142553482
0	3408	281366.469594743117	2031.4218702726
0	3415	281924.097654456287	1807.8268627636
0	3424	282651.677540363758	1746.6604189016
0	3435	283484.884403133779	2057.6043048408
0	3442	283842.547094682246	1711.4356015809
0	3455	285206.603608327001	2232.680125488
0	3462	285642.221859097495	2117.8646716755
0	3473	286557.988818828031	2193.1838580407
0	3478	286887.449210090577	1680.8456017636
0	3491	287743.823093734696	2011.5830829833
0	3500	288541.879628179609	1983.8908093516
0	3505	288913.944204524174	1898.1661361642
0	3514	289712.645564507708	1968.822470773
0	3527	290846.209523035228	2304.3298948556
0	3536	291642.72986138241	2236.8198922835
0	3545	292435.901929205299	2378.6553575657
0	3554	293129.683674545974	2283.4741515107
0	3563	293856.250207358987	2213.5203459766
0	3570	294451.868466474132	2015.9665372688
0	3579	294945.111231040226	1815.4275564943
0	3590	295948.031344078497	2091.7811367195
0	3597	296473.144652182252	1967.3587119207
0	3606	297230.219205608607	2124.1773563437
0	3613	298222.692283149825	2274.6609390713
0	3626	299143.238032842071	2394.1876241472
0	3633	299625.121706211956	2050.2156015951
0	3636	299951.845636172237	1587.8108781762
0	3649	300940.920474473403	1797.6824416313
0	3658	302149.385724775509	2158.8206397369
0	3667	302956.417495105431	2319.0218333155
0	3678	303836.988706514256	2316.9652995653
0	3687	304576.585381245257	2192.2040123027
0	3694	305111.943817092122	1950.6728857756
0	3703	305911.022419575619	2061.4789415617
0	3714	306824.664201540889	2218.8208959997
0	3721	307182.340473588573	1786.5464867558
0	3734	308218.568215565773	1938.9395541977
0	3743	308932.406708411889	1969.3780052941
0	3752	309784.256789227964	2280.4668294266
0	3759	310398.902516299875	2180.3343007341
0	3768	311173.844094201939	2241.4373857901
0	3777	311902.322779130207	2118.0659899022
0	3788	312721.638359874503	2257.111890614
0	3795	313486.148356134088	2228.6030801944
0	3802	314102.163030998797	2061.7819694336
0	3813	315040.324234915913	2318.6858750414
0	3820	315610.403939941914	2047.7116045542
0	3831	316249.005077127383	1830.5872326717
0	3842	317052.122269431145	1835.8193350956
0	3849	317720.305457012744	1805.0303318538
0	3856	318135.424593044461	1606.9460717496
0	3865	318899.400940490902	1847.2786710598
0	3876	320016.791943646983	2281.6699781455
0	3883	320379.55572023058	1815.1195103768
0	3892	321586.444406211391	2170.386776654
0	3903	322319.604807626471	2023.7382697407
0	3910	323015.534597961247	1827.7389278635
0	3919	323625.672849873096	1800.8863123599
0	3928	324288.561278209106	1608.1760136411
0	3939	325250.767567707241	1760.0752883591
0	3946	325919.7009176016	1786.2047185656
0	3955	326809.109963849202	1969.17697764
0	3968	328119.425163511202	2502.9815952759
0	3977	328686.17863557303	2191.3041663822
0	3984	329258.841016469539	1890.9081657417
0	3991	329957.104284921677	1837.6791214105
0	4000	330833.510346338168	2147.3317107651
0	4011	331499.786378536389	2022.7049246896
0	4020	332176.487129274771	1937.3271836434
0	4027	332483.62502502279	1441.0059259739
0	4036	333203.111702576296	1633.9384578634
0	4045	334052.306801592948	1863.4742345195
0	4056	335126.459911884757	2272.3384295125
0	4059	335447.426188923436	1698.4855604824
0	4074	336782.504855934548	2177.4372076616
0	4081	337250.618709856662	1777.9610089492
0	4092	337978.875668300334	1942.4953540787
0	4101	338830.598319321888	1985.6339894235
0	4110	339739.620502945054	2136.7046322674
0	4121	340187.539524771292	1921.8417359982
0	4126	340722.673388617132	1807.9869015142
0	4139	341796.726575447265	1999.0772943478
0	4144	342115.666404878739	1928.1268801074
0	4157	343343.830312695373	2390.0290810503
0	4162	343804.552162718047	2007.8255872708
0	4171	344626.009792881105	2109.4951487146
0	4184	345547.972691617924	2204.1423789226
0	4189	346075.152507657203	2017.9042579606
0	4198	346755.020301556233	1965.9392990638
0	4207	347483.396395342442	1935.4237037245
0	4216	348159.600094612706	1750.7221479435
0	4229	349314.629441639427	2135.9887200873
0	4238	349812.008806038666	2029.1672915686
0	4247	350556.264156242851	1928.519124398
0	4256	351346.474434435386	2031.844992796
0	4263	351860.561281302962	2048.5524752643
0	4272	352628.667329857144	2072.4031736143
0	4283	353193.646912509594	1847.1724780742
0	4292	353978.248233860377	1978.3037692308
0	4299	354674.686989979837	1984.5391052775
0	4310	355565.296626370419	2371.6497138608
0	4315	355891.388602461685	1913.1403686013
0	4326	356579.34871749023	1870.1758897863
0	4337	357394.583057099972	1829.2864307296
0	4342	357709.721356770042	1678.7852472626
0	4351	358292.732111876849	1475.0091318972
0	4362	359723.975446773712	2329.3923896737
0	4373	360450.164385326226	2370.5329515506
0	4378	360886.761132627745	2012.092133984
0	4391	361741.736215772127	1974.4664135389
0	4400	362513.409122591858	2063.2447372656
0	4405	363001.786742219721	1946.637690207
0	4418	363918.377720145529	2176.6415043734
0	4425	364647.361902147552	2133.9527795557
0	4432	365306.842154916396	1938.9189120848
0	4443	366295.532291941365	2377.1545717958
0	4450	366823.179705441019	2071.3767036796
0	4461	367671.980893844759	2075.8447038475
0	4472	368166.206030314809	1687.4367690179
0	4481	368841.093082493192	1730.9599596541
0	4488	369210.735723143464	1505.5217925925
0	4495	370076.847598375773	1910.641568061
0	4504	371025.774537865093	2184.6814553719
0	4515	371607.767349248772	1941.0888812039
0	4522	372151.482216501629	1738.6391895823
0	4531	372533.98105390372	1404.2675054166
0	4542	373710.350638953991	1952.7999635786
0	4549	374183.020624145888	1686.0951407813
0	4560	375170.503055211178	2311.3578225486
0	4567	375821.222953638083	2081.5864968114
0	4578	376606.17584930735	1998.1349108275
0	4581	376906.933617359049	1434.1250063851
0	4594	377679.669009335359	1609.8450282589
0	4605	378674.907850613838	1742.6509151235
0	4616	379498.061484564116	2010.6295744423
0	4623	380031.756026856622	1753.7605220452
0	4632	380932.826975081137	2112.6005333383
0	4643	381763.038126518971	2264.9766419549
0	4648	382370.738052763066	2047.1898837481
0	4659	383011.215002741686	1970.6871808972
0	4662	383370.551300374812	1607.5131738558
0	4679	384995.604843227214	2404.5467060991
0	4684	385494.913956010735	2010.2661611047
0	4695	386360.776303382612	2088.9400181361
0	4704	386962.415215233363	1966.8103720061
0	4713	387764.04579933735	2012.6132187434
0	4722	388446.356114046671	1955.3260453977
0	4729	388983.739249454834	1784.8457504064
0	4742	389849.591592745878	1933.5211596452
0	4751	390662.686916207917	2108.109270595
0	4760	391353.54506489823	2230.6072087493
0	4767	391995.940411929063	2146.3488191832
0	4774	392749.846247350819	2087.1593311429
0	4785	393295.229787239827	1941.6847223416
0	4794	393917.743200296558	1789.4399250392
0	4803	394420.584102580346	1491.2820469122
0	4812	395203.310008300491	1789.628531551
0	4819	395790.879215626069	1742.176781036
0	4832	396976.577988825761	2389.8269064724
0	4837	397290.39135896603	1861.384920124
0	4848	398040.668278187536	1930.8947087266
0	4859	398907.994526624702	1931.4165377989
0	4864	399348.459712509088	1680.9391400311
0	4875	400320.930762123339	2272.3657240625
0	4884	401116.253194492334	2208.2586678676
0	4895	401916.563277505362	2304.9033767078
0	4904	402636.778546823213	2209.9970529322
0	4911	403254.212097823644	2061.9998363312
0	4920	404064.922594791302	2148.3593172859
0	4931	404914.9754829705	2278.1969361473
0	4936	405280.964447697648	1769.8455210775
0	4945	405843.372857524106	1711.4062971901
0	4954	406621.338675124595	1706.3631921541
0	4967	407783.881845837483	2397.3463699222
0	4972	408478.758617956215	2196.4515462052
0	4981	409100.311600137526	2077.7418314014
0	4992	410006.46114838312	2222.5793025456
0	5003	410793.801400484541	2138.3843585383
0	5012	411486.313441861445	1998.099108506
0	5019	411967.790122283647	1874.8012054246
0	5028	412936.61591811108	2142.8145176265
0	5039	413695.451398333559	2209.1379564721
0	5044	414277.054596506084	2024.7155800927
0	5055	415117.95129985551	2110.3889755905
0	5066	415694.266173709208	1998.8147753756
0	5073	416287.448992207671	1723.750157794
0	5080	416785.409860918323	1609.2723358423
0	5089	417333.550342451805	1639.2841687426
0	5102	418772.617192938949	2462.6720606815
0	5111	419405.237096920635	2252.4420993403
0	5116	419908.208296448018	1890.5848593917
0	5125	420900.942616676938	2128.325423738
0	5136	421566.209223540526	2160.9721266199
0	5145	422534.518030844655	2293.8073818572
0	5156	423343.031436949995	2221.7471138109
0	5161	423749.001258239177	2084.8206422757
0	5170	424484.982442483333	1943.4942257591
0	5183	425837.235015677315	2494.2035787273
0	5190	426375.208612857413	2238.8375049457
0	5197	426997.68993859182	1984.4300972298
0	5206	428068.267726991353	2231.032711314
0	5215	428737.86428463648	2001.6102304682
0	5224	429447.845509601784	1814.2160936259
0	5233	430132.561578461927	1835.7472669333
0	5246	431274.179593892795	2226.7311440315
0	5255	432052.686170395491	2194.3448054139
0	5264	432865.601671719951	2432.8779099975
0	5273	433586.649899929789	2312.470306037
0	5282	434375.344048999277	2322.6578786038
0	5289	435035.190342692685	2169.5886709727
0	5296	435589.254357386407	2002.6044574566
0	5305	436174.10825625996	1798.7642072607
0	5314	437165.841089375344	1890.7610736787
0	5323	438004.176755016696	1965.054813819
0	5334	438798.853024514419	1894.8320114985
0	5345	439579.516209801685	2105.4492259864
0	5352	440177.824813406941	2110.0723472424
0	5363	441077.633687155348	2224.0865995176
0	5368	441697.166185034466	2117.6499752328
0	5379	442409.800735674825	1946.017686557
0	5386	443192.934114486006	2115.3004273307
0	5399	444290.788182523129	2326.965473732
0	5408	444859.563608234776	2134.6112643834
0	5413	445174.446671968354	1683.2439984195
0	5424	446250.612423196463	1959.8242406733
0	5435	447127.106761559872	2267.5431533251
0	5444	447921.589728165446	2445.8190949168
0	5451	448344.904455821989	2010.4660301004
0	5458	449083.070914261071	1955.9641527012
0	5469	450004.351908294512	2082.7621801291
0	5476	450354.061987157939	1599.8106949031
0	5485	451160.449165944038	1564.8740310688
0	5496	452103.421501815347	1984.5050801989
0	5505	452687.601764174206	1791.381903179
0	5516	453523.373417928842	2140.8747024368
0	5525	454376.023331796778	2228.4569062293
0	5530	454721.207247907323	1975.58182762
0	5539	455209.452801570324	1686.0793836415
0	5548	456062.768011540202	1686.7446797434
0	5559	456747.166911279811	1733.1091378815
0	5566	457445.679725334076	1655.401001405
0	5579	458624.013204965769	2269.5018789265
0	5586	459138.190692756354	2106.4044329803
0	5597	460180.085950763925	2390.3385255486
0	5606	461045.638354076102	2421.6251491103
0	5615	461680.21484487693	2337.0030050632
0	5622	462468.639052100509	2288.5531013366
0	5629	463346.902756858647	2301.2644027825
0	5638	463846.676471689746	2166.4616268128
0	5647	464829.931840812817	2290.7629048917
0	5660	465958.528194436833	2589.4241672941
0	5665	466310.297818807915	2055.872574728
0	5674	466832.860460272089	1760.6580288615
0	5683	467700.434949947551	1741.9067555107
0	5692	468154.763342253894	1465.3918522876
0	5703	469126.132642943442	2039.6813018247
0	5712	469749.398644873902	1902.8834230732
0	5721	470259.129583882198	1789.3595119938
0	5728	470820.951245119825	1650.4924594425
0	5737	471677.359198825464	1876.1046721134
0	5746	472798.405563784793	2234.7202889621
0	5755	473452.530357660756	2068.4825025033
0	5768	474644.616186618835	2397.3063429818
0	5775	475255.31192002821	2196.4412224945
0	5782	475739.082286460355	1939.1869629733
0	5795	476555.128845758766	1910.5126591399
0	5800	477128.998024296045	1798.0643277057
0	5811	477903.971629589827	1842.4515395891
0	5820	478478.730613645196	1923.6017678864
0	5829	479253.149675158814	2005.530734919
0	5836	479807.283534156189	1783.7314972188
0	5849	481022.859853645817	2248.3892187942
0	5854	481398.274575965509	2006.5015898086
0	5863	482129.769686283574	2005.3775683511
0	5876	482969.780108844892	1946.9202551991
0	5881	483380.385096324638	1595.125995297
0	5892	484388.15839975144	2072.4542012438
0	5899	484733.640331914679	1763.8602230698
0	5908	485477.275371691242	1759.4841693062
0	5919	486220.474355388463	1792.4989355262
0	5930	486967.229307163538	1811.9714576751
0	5935	487293.976714555205	1558.9200468734
0	5946	488197.038145735892	1870.8917641081
0	5957	488907.119114371049	1939.8898072075
0	5966	489769.90756094459	1990.0399115402
0	5971	490175.899083539876	1942.2251888551
0	5982	491044.509190041604	2137.3900756706
0	5991	491962.317858031052	2192.4102970865
0	6000	492822.107603726941	2183.5479925387
0	6011	493495.418762695077	2283.9298065752
0	6020	494177.025760849971	2081.4600278623
0	6025	494741.306707961518	1823.029080173
0	6038	495822.437530383501	2327.0187676884
0	6045	496214.786183740977	2037.760422891
0	6052	496782.082742918316	1718.4110336937
0	6063	497912.543416069854	2090.1058856864
0	6070	498483.532973611761	1820.3773560002
0	6079	499134.563728608225	1735.3516625706
0	6092	500281.872247718309	2073.6646128818
0	6101	500711.335255717893	1918.1968039367
0	6108	501286.960217217018	1652.3240034934
0	6117	502237.057213531842	1955.1849658135
0	6124	502829.033623030444	2117.6983673126
0	6137	504212.2495518532	2631.0809246264
0	6144	504815.511641325464	2368.4024164919
0	6155	505599.951001675834	2275.2962063067
0	6160	505947.753138234873	1735.5035863817
0	6169	506282.376199308817	1293.6307417229
0	6182	507882.302999775891	2282.3519981001
0	6187	508245.212792744894	2089.3952521496
0	6200	509362.185835093294	2359.4817209523
0	6209	510041.875533666496	2159.5725338906
0	6218	510583.345554443111	2074.4997939561
0	6225	511302.047774288838	1939.8619391955
0	6236	512158.850195305457	2116.974661639
0	6245	513026.21424668472	2442.8686922416
0	6252	513662.651630351355	2232.5630219188
0	6261	514459.975100727787	2301.1249054223
0	6268	514899.997315043619	1873.7830683589
0	6279	516197.333138622379	2284.5771024004
0	6290	517182.455580029672	2391.4944852702
0	6295	517577.888561831823	1917.2597212717
0	6306	518666.114678280463	2347.6486957166
0	6315	519588.951127370855	2406.4955473412
0	6324	520476.142557989842	2471.2455360219
0	6333	521253.216286422721	2382.714626519
0	6340	521820.818455936424	2106.1713037547
0	6349	522380.054108519145	1806.786161894
0	6362	523529.214905574955	2117.7924096119
0	6371	524418.994717905335	2514.4353367388
0	6376	524741.156137129329	1959.5616855193
0	6387	526123.391286330335	2594.1763807554
0	6394	526537.400265689977	2118.4055477846
0	6407	527677.434142632447	2361.586350482
0	6412	528149.563750997223	2016.9066710863
0	6421	528846.632501436435	2031.0211247765
0	6430	529372.607850842215	1695.1737082098
0	6439	529915.537446923591	1570.7006354816
0	6452	531056.013276055492	2146.2241034489
0	6457	531518.769344827197	1910.4359031189
0	6470	532697.18273892071	2457.547785854
0	6479	533253.115840489081	2197.1025644336
0	6486	534046.628179214931	2109.9271394312
0	6497	534745.783481234721	2048.600742314
0	6504	535426.223920192606	2173.1080797035
0	6513	536202.218961389772	2067.8912648465
0	6520	536961.403007525987	2215.6195262913
0	6529	537692.720391741059	2258.0042189453
0	6542	538486.210568575225	2175.7080250885
0	6547	538822.436561621762	1763.8379668817
0	6558	540037.909298529886	2123.20705452
0	6565	540407.890737662129	1921.6801690869
0	6578	541328.303621616252	2041.6076083202
0	6583	541641.727442527227	1566.2173437886
0	6592	542155.043102614619	1301.9396375399
0	6601	542992.227481026241	1663.92385941
0	6612	543803.54851624001	1812.7656163182
0	6623	544545.268020685801	2160.22395459
0	6630	545152.663618745321	2008.7354928721
0	6637	545898.473727610002	2039.2666736618
0	6650	546827.538767689879	2282.2707470041
0	6657	547488.310138089622	2169.4420429878
0	6664	547850.679676188196	1813.482142752
0	6675	548716.868300037499	1889.3295323476
0	6682	549044.084652001079	1440.5357488431
0	6695	550012.641536677298	1956.8659395911
0	6702	550806.430177576882	1883.6604191456
0	6709	551522.403607377825	2040.9429485444
0	6722	552585.147916618777	2572.5063799415
0	6731	553350.342214247254	2522.3209497984
0	6736	553801.226785127116	2115.8967075404
0	6745	554396.043135691476	1810.8952190727
0	6756	555374.565636506346	2024.2234222591
0	6767	556152.796043688473	2002.8031694703
0	6776	556560.664373450023	1554.3814999983
0	6783	557261.843720544171	1837.8398666158
0	6790	557657.096207421314	1504.3001637328
0	6799	558403.510146355299	1842.8457729053
0	6808	559117.570462077899	1684.2007190455
0	6819	559860.928923217621	1762.7713913564
0	6828	560652.757201110987	2130.9190215077
0	6837	561227.231069840534	1932.4835476466
0	6846	562009.409501776142	1990.2307632845
0	6853	562566.827466571746	1901.2779555749
0	6862	563060.905942088036	1793.7183146831
0	6873	564059.350824309556	2007.2229189333
0	6884	564922.290821140675	2218.2480524294
0	6889	565347.365540731741	1755.278452998
0	6902	566472.037881240291	2300.7365608122
0	6909	567290.302159264726	2368.0113381241
0	6918	567774.610669026194	2009.2592932284
0	6925	568260.040962416721	1788.0030811764
0	6934	568659.139840677423	1316.1907162517
0	6947	569628.938720142511	1695.6049995963
0	6954	570083.941410994199	1648.725424055
0	6965	571089.701112359805	1979.8557325266
0	6974	571804.454931942789	2175.5162118003
0	6979	572436.213706014721	2221.1908166762
0	6992	573160.333054885311	2070.6319425255
0	7001	574046.894022356762	2242.439090414
0	7010	574643.860678374811	2105.6006649043
0	7015	575324.799754796593	2164.4666999113
0	7026	576121.577335987284	2074.6833136305
0	7035	576934.695550426885	2290.8348720521
0	7044	577610.963169531941	2138.6755112093
0	7055	578554.812680650546	2356.0158370994
0	7062	579057.267801230817	2038.4713465814
0	7071	579812.562014535113	1961.7488344666
0	7082	580892.464028717994	2337.6513480674
0	7091	581692.297082534104	2270.9839515388
0	7096	582001.442580297633	1913.7526643928
0	7107	582923.611805308655	2031.1477765907
0	7114	583406.159225525379	1713.8621429913
0	7123	584084.629426337823	1645.8070297725
0	7134	585035.231490712657	2095.4928591382
0	7143	585924.225413007706	2145.2059586998
0	7152	586726.835591252937	2202.7860417031
0	7163	587721.609526919246	2583.2943971269
0	7168	588039.374003838793	2099.244513642
0	7179	589180.929258652077	2356.7352245562
0	7186	589504.299266450153	1782.6897395309
0	7197	590724.72587311645	2156.869222736
0	7206	591572.917429218115	2289.7559773643
0	7213	591903.930233744951	1801.5447161626
0	7222	592696.951798209966	1789.4353752024
0	7231	593279.410133371176	1553.5922592971
0	7244	594508.689099177765	1984.7760806791
0	7251	595205.316064646514	2300.1216641162
0	7262	596090.389297530102	2431.2508962583
0	7271	596445.833394024568	1937.1442948468
0	7278	596758.320645103278	1416.2614812143
0	7285	597387.551728868904	1297.1624313388
0	7294	597990.159436874139	1544.3260428496
0	7307	599314.104480855214	2165.9325296525
0	7314	600065.190398320603	2386.8334386963
0	7321	600596.604342665571	2132.0174919907
0	7334	601859.448463143828	2545.3439822886
0	7341	602601.183903403627	2406.5019228961
0	7352	603332.118047727319	2346.0017134901
0	7359	603953.413531556773	2093.9650684129
0	7366	604686.693906225312	1992.6786492113
1	3167	260536.005457956358	350
1	3174	261137.852784292787	351
1	3181	261579.561020387351	352
1	3190	262189.9171982892	353
1	3201	263346.049013268216	354
1	3210	263818.97099912168	355
1	3219	264677.814918570234	356
1	3230	265811.598138744026	357
1	3237	266191.852666111677	358
1	3240	266546.516561508193	359
1	3253	267903.882117010668	360
1	3262	269025.161951221541	361
1	3273	269712.882865453153	362
1	3282	270300.529459957048	363
1	3291	271064.101367583513	364
1	3298	271747.406909242287	365
1	3307	272414.573538349957	366
1	3320	273761.34963347578	367
1	3329	274613.885286636665	368
1	3338	275362.521640956416	369
1	3347	276256.652644928559	370
1	3354	276885.68876003848	371
1	3363	277761.30660460332	372
1	3372	278387.983142863974	373
1	3379	279200.239952327699	374
1	3390	280073.703343933463	375
1	3401	280905.017121462166	376
1	3408	281366.469594743117	377
1	3415	281924.097654456287	378
1	3424	282651.677540363758	379
1	3435	283484.884403133779	380
1	3442	283842.547094682246	381
1	3455	285206.603608327001	382
1	3462	285642.221859097495	383
1	3473	286557.988818828031	384
1	3478	286887.449210090577	385
1	3491	287743.823093734696	386
1	3500	288541.879628179609	387
1	3505	288913.944204524174	388
1	3514	289712.645564507708	389
1	3527	290846.209523035228	390
1	3536	291642.72986138241	391
1	3545	292435.901929205299	392
1	3554	293129.683674545974	393
1	3563	293856.250207358987	394
1	3570	294451.868466474132	395
1	3579	294945.111231040226	396
1	3590	295948.031344078497	397
1	3597	296473.144652182252	398
1	3606	297230.219205608607	399
1	3613	298222.692283149825	400
1	3626	299143.238032842071	401
1	3633	299625.121706211956	402
1	3636	299951.845636172237	403
1	3649	300940.920474473403	404
1	3658	302149.385724775509	405
1	3667	302956.417495105431	406
1	3678	303836.988706514256	407
1	3687	304576.585381245257	408
1	3694	305111.943817092122	409
1	3703	305911.022419575619	410
1	3714	306824.664201540889	411
1	3721	307182.340473588573	412
1	3734	308218.568215565773	413
1	3743	308932.406708411889	414
1	3752	309784.256789227964	415
1	3759	310398.902516299875	416
1	3768	311173.844094201939	417
1	3777	311902.322779130207	418
1	3788	312721.638359874503	419
1	3795	313486.148356134088	420
1	3802	314102.163030998797	421
1	3813	315040.324234915913	422
1	3820	315610.403939941914	423
1	3831	316249.005077127383	424
1	3842	317052.122269431145	425
1	3849	317720.305457012744	426
1	3856	318135.424593044461	427
1	3865	318899.400940490902	428
1	3876	320016.791943646983	429
1	3883	320379.55572023058	430
1	3892	321586.444406211391	431
1	3903	322319.604807626471	432
1	3910	323015.534597961247	433
1	3919	323625.672849873096	434
1	3928	324288.561278209106	435
1	3939	325250.767567707241	436
1	3946	325919.7009176016	437
1	3955	326809.109963849202	438
1	3968	328119.425163511202	439
1	3977	328686.17863557303	440
1	3984	329258.841016469539	441
1	3991	329957.104284921677	442
1	4000	330833.510346338168	443
1	4011	331499.786378536389	444
1	4020	332176.487129274771	445
1	4027	332483.62502502279	446
1	4036	333203.111702576296	447
1	4045	334052.306801592948	448
1	4056	335126.459911884757	449
1	4059	335447.426188923436	450
1	4074	336782.504855934548	451
1	4081	337250.618709856662	452
1	4092	337978.875668300334	453
1	4101	338830.598319321888	454
1	4110	339739.620502945054	455
1	4121	340187.539524771292	456
1	4126	340722.673388617132	457
1	4139	341796.726575447265	458
1	4144	342115.666404878739	459
1	4157	343343.830312695373	460
1	4162	343804.552162718047	461
1	4171	344626.009792881105	462
1	4184	345547.972691617924	463
1	4189	346075.152507657203	464
1	4198	346755.020301556233	465
1	4207	347483.396395342442	466
1	4216	348159.600094612706	467
1	4229	349314.629441639427	468
1	4238	349812.008806038666	469
1	4247	350556.264156242851	470
1	4256	351346.474434435386	471
1	4263	351860.561281302962	472
1	4272	352628.667329857144	473
1	4283	353193.646912509594	474
1	4292	353978.248233860377	475
1	4299	354674.686989979837	476
1	4310	355565.296626370419	477
1	4315	355891.388602461685	478
1	4326	356579.34871749023	479
1	4337	357394.583057099972	480
1	4342	357709.721356770042	481
1	4351	358292.732111876849	482
1	4362	359723.975446773712	483
1	4373	360450.164385326226	484
1	4378	360886.761132627745	485
1	4391	361741.736215772127	486
1	4400	362513.409122591858	487
1	4405	363001.786742219721	488
1	4418	363918.377720145529	489
1	4425	364647.361902147552	490
1	4432	365306.842154916396	491
1	4443	366295.532291941365	492
1	4450	366823.179705441019	493
1	4461	367671.980893844759	494
1	4472	368166.206030314809	495
1	4481	368841.093082493192	496
1	4488	369210.735723143464	497
1	4495	370076.847598375773	498
1	4504	371025.774537865093	499
1	4515	371607.767349248772	500
1	4522	372151.482216501629	501
1	4531	372533.98105390372	502
1	4542	373710.350638953991	503
1	4549	374183.020624145888	504
1	4560	375170.503055211178	505
1	4567	375821.222953638083	506
1	4578	376606.17584930735	507
1	4581	376906.933617359049	508
1	4594	377679.669009335359	509
1	4605	378674.907850613838	510
1	4616	379498.061484564116	511
1	4623	380031.756026856622	512
1	4632	380932.826975081137	513
1	4643	381763.038126518971	514
1	4648	382370.738052763066	515
1	4659	383011.215002741686	516
1	4662	383370.551300374812	517
1	4679	384995.604843227214	518
1	4684	385494.913956010735	519
1	4695	386360.776303382612	520
1	4704	386962.415215233363	521
1	4713	387764.04579933735	522
1	4722	388446.356114046671	523
1	4729	388983.739249454834	524
1	4742	389849.591592745878	525
1	4751	390662.686916207917	526
1	4760	391353.54506489823	527
1	4767	391995.940411929063	528
1	4774	392749.846247350819	529
1	4785	393295.229787239827	530
1	4794	393917.743200296558	531
1	4803	394420.584102580346	532
1	4812	395203.310008300491	533
1	4819	395790.879215626069	534
1	4832	396976.577988825761	535
1	4837	397290.39135896603	536
1	4848	398040.668278187536	537
1	4859	398907.994526624702	538
1	4864	399348.459712509088	539
1	4875	400320.930762123339	540
1	4884	401116.253194492334	541
1	4895	401916.563277505362	542
1	4904	402636.778546823213	543
1	4911	403254.212097823644	544
1	4920	404064.922594791302	545
1	4931	404914.9754829705	546
1	4936	405280.964447697648	547
1	4945	405843.372857524106	548
1	4954	406621.338675124595	549
1	4967	407783.881845837483	550
1	4972	408478.758617956215	551
1	4981	409100.311600137526	552
1	4992	410006.46114838312	553
1	5003	410793.801400484541	554
1	5012	411486.313441861445	555
1	5019	411967.790122283647	556
1	5028	412936.61591811108	557
1	5039	413695.451398333559	558
1	5044	414277.054596506084	559
1	5055	415117.95129985551	560
1	5066	415694.266173709208	561
1	5073	416287.448992207671	562
1	5080	416785.409860918323	563
1	5089	417333.550342451805	564
1	5102	418772.617192938949	565
1	5111	419405.237096920635	566
1	5116	419908.208296448018	567
1	5125	420900.942616676938	568
1	5136	421566.209223540526	569
1	5145	422534.518030844655	570
1	5156	423343.031436949995	571
1	5161	423749.001258239177	572
1	5170	424484.982442483333	573
1	5183	425837.235015677315	574
1	5190	426375.208612857413	575
1	5197	426997.68993859182	576
1	5206	428068.267726991353	577
1	5215	428737.86428463648	578
1	5224	429447.845509601784	579
1	5233	430132.561578461927	580
1	5246	431274.179593892795	581
1	5255	432052.686170395491	582
1	5264	432865.601671719951	583
1	5273	433586.649899929789	584
1	5282	434375.344048999277	585
1	5289	435035.190342692685	586
1	5296	435589.254357386407	587
1	5305	436174.10825625996	588
1	5314	437165.841089375344	589
1	5323	438004.176755016696	590
1	5334	438798.853024514419	591
1	5345	439579.516209801685	592
1	5352	440177.824813406941	593
1	5363	441077.633687155348	594
1	5368	441697.166185034466	595
1	5379	442409.800735674825	596
1	5386	443192.934114486006	597
1	5399	444290.788182523129	598
1	5408	444859.563608234776	599
1	5413	445174.446671968354	600
1	5424	446250.612423196463	601
1	5435	447127.106761559872	602
1	5444	447921.589728165446	603
1	5451	448344.904455821989	604
1	5458	449083.070914261071	605
1	5469	450004.351908294512	606
1	5476	450354.061987157939	607
1	5485	451160.449165944038	608
1	5496	452103.421501815347	609
1	5505	452687.601764174206	610
1	5516	453523.373417928842	611
1	5525	454376.023331796778	612
1	5530	454721.207247907323	613
1	5539	455209.452801570324	614
1	5548	456062.768011540202	615
1	5559	456747.166911279811	616
1	5566	457445.679725334076	617
1	5579	458624.013204965769	618
1	5586	459138.190692756354	619
1	5597	460180.085950763925	620
1	5606	461045.638354076102	621
1	5615	461680.21484487693	622
1	5622	462468.639052100509	623
1	5629	463346.902756858647	624
1	5638	463846.676471689746	625
1	5647	464829.931840812817	626
1	5660	465958.528194436833	627
1	5665	466310.297818807915	628
1	5674	466832.860460272089	629
1	5683	467700.434949947551	630
1	5692	468154.763342253894	631
1	5703	469126.132642943442	632
1	5712	469749.398644873902	633
1	5721	470259.129583882198	634
1	5728	470820.951245119825	635
1	5737	471677.359198825464	636
1	5746	472798.405563784793	637
1	5755	473452.530357660756	638
1	5768	474644.616186618835	639
1	5775	475255.31192002821	640
1	5782	475739.082286460355	641
1	5795	476555.128845758766	642
1	5800	477128.998024296045	643
1	5811	477903.971629589827	644
1	5820	478478.730613645196	645
1	5829	479253.149675158814	646
1	5836	479807.283534156189	647
1	5849	481022.859853645817	648
1	5854	481398.274575965509	649
1	5863	482129.769686283574	650
1	5876	482969.780108844892	651
1	5881	483380.385096324638	652
1	5892	484388.15839975144	653
1	5899	484733.640331914679	654
1	5908	485477.275371691242	655
1	5919	486220.474355388463	656
1	5930	486967.229307163538	657
1	5935	487293.976714555205	658
1	5946	488197.038145735892	659
1	5957	488907.119114371049	660
1	5966	489769.90756094459	661
1	5971	490175.899083539876	662
1	5982	491044.509190041604	663
1	5991	491962.317858031052	664
1	6000	492822.107603726941	665
1	6011	493495.418762695077	666
1	6020	494177.025760849971	667
1	6025	494741.306707961518	668
1	6038	495822.437530383501	669
1	6045	496214.786183740977	670
1	6052	496782.082742918316	671
1	6063	497912.543416069854	672
1	6070	498483.532973611761	673
1	6079	499134.563728608225	674
1	6092	500281.872247718309	675
1	6101	500711.335255717893	676
1	6108	501286.960217217018	677
1	6117	502237.057213531842	678
1	6124	502829.033623030444	679
1	6137	504212.2495518532	680
1	6144	504815.511641325464	681
1	6155	505599.951001675834	682
1	6160	505947.753138234873	683
1	6169	506282.376199308817	684
1	6182	507882.302999775891	685
1	6187	508245.212792744894	686
1	6200	509362.185835093294	687
1	6209	510041.875533666496	688
1	6218	510583.345554443111	689
1	6225	511302.047774288838	690
1	6236	512158.850195305457	691
1	6245	513026.21424668472	692
1	6252	513662.651630351355	693
1	6261	514459.975100727787	694
1	6268	514899.997315043619	695
1	6279	516197.333138622379	696
1	6290	517182.455580029672	697
1	6295	517577.888561831823	698
1	6306	518666.114678280463	699
1	6315	519588.951127370855	700
1	6324	520476.142557989842	701
1	6333	521253.216286422721	702
1	6340	521820.818455936424	703
1	6349	522380.054108519145	704
1	6362	523529.214905574955	705
1	6371	524418.994717905335	706
1	6376	524741.156137129329	707
1	6387	526123.391286330335	708
1	6394	526537.400265689977	709
1	6407	527677.434142632447	710
1	6412	528149.563750997223	711
1	6421	528846.632501436435	712
1	6430	529372.607850842215	713
1	6439	529915.537446923591	714
1	6452	531056.013276055492	715
1	6457	531518.769344827197	716
1	6470	532697.18273892071	717
1	6479	533253.115840489081	718
1	6486	534046.628179214931	719
1	6497	534745.783481234721	720
1	6504	535426.223920192606	721
1	6513	536202.218961389772	722
1	6520	536961.403007525987	723
1	6529	537692.720391741059	724
1	6542	538486.210568575225	725
1	6547	538822.436561621762	726
1	6558	540037.909298529886	727
1	6565	540407.890737662129	728
1	6578	541328.303621616252	729
1	6583	541641.727442527227	730
1	6592	542155.043102614619	731
1	6601	542992.227481026241	732
1	6612	543803.54851624001	733
1	6623	544545.268020685801	734
1	6630	545152.663618745321	735
1	6637	545898.473727610002	736
1	6650	546827.538767689879	737
1	6657	547488.310138089622	738
1	6664	547850.679676188196	739
1	6675	548716.868300037499	740
1	6682	549044.084652001079	741
1	6695	550012.641536677298	742
1	6702	550806.430177576882	743
1	6709	551522.403607377825	744
1	6722	552585.147916618777	745
1	6731	553350.342214247254	746
1	6736	553801.226785127116	747
1	6745	554396.043135691476	748
1	6756	555374.565636506346	749
1	6767	556152.796043688473	750
1	6776	556560.664373450023	751
1	6783	557261.843720544171	752
1	6790	557657.096207421314	753
1	6799	558403.510146355299	754
1	6808	559117.570462077899	755
1	6819	559860.928923217621	756
1	6828	560652.757201110987	757
1	6837	561227.231069840534	758
1	6846	562009.409501776142	759
1	6853	562566.827466571746	760
1	6862	563060.905942088036	761
1	6873	564059.350824309556	762
1	6884	564922.290821140675	763
1	6889	565347.365540731741	764
1	6902	566472.037881240291	765
1	6909	567290.302159264726	766
1	6918	567774.610669026194	767
1	6925	568260.040962416721	768
1	6934	568659.139840677423	769
1	6947	569628.938720142511	770
1	6954	570083.941410994199	771
1	6965	571089.701112359805	772
1	6974	571804.454931942789	773
1	6979	572436.213706014721	774
1	6992	573160.333054885311	775
1	7001	574046.894022356762	776
1	7010	574643.860678374811	777
1	7015	575324.799754796593	778
1	7026	576121.577335987284	779
1	7035	576934.695550426885	780
1	7044	577610.963169531941	781
1	7055	578554.812680650546	782
1	7062	579057.267801230817	783
1	7071	579812.562014535113	784
1	7082	580892.464028717994	785
1	7091	581692.297082534104	786
1	7096	582001.442580297633	787
1	7107	582923.611805308655	788
1	7114	583406.159225525379	789
1	7123	584084.629426337823	790
1	7134	585035.231490712657	791
1	7143	585924.225413007706	792
1	7152	586726.835591252937	793
1	7163	587721.609526919246	794
1	7168	588039.374003838793	795
1	7179	589180.929258652077	796
1	7186	589504.299266450153	797
1	7197	590724.72587311645	798
1	7206	591572.917429218115	799
1	7213	591903.930233744951	800
1	7222	592696.951798209966	801
1	7231	593279.410133371176	802
1	7244	594508.689099177765	803
1	7251	595205.316064646514	804
1	7262	596090.389297530102	805
1	7271	596445.833394024568	806
1	7278	596758.320645103278	807
1	7285	597387.551728868904	808
1	7294	597990.159436874139	809
1	7307	599314.104480855214	810
1	7314	600065.190398320603	811
1	7321	600596.604342665571	812
1	7334	601859.448463143828	813
1	7341	602601.183903403627	814
1	7352	603332.118047727319	815
1	7359	603953.413531556773	816
1	7366	604686.693906225312	817

