version 2
run Pipeline_7teachers-19-20181220-18:43:17-15480
attr configname Pipeline_7teachers
attr datetime 20181220-18:43:17
attr experiment Pipeline_7teachers
attr inifile omnetpp.ini
attr iterationvars "$0=\"lognormal\""
attr iterationvarsf lognormal-
attr measurement "$0=\"lognormal\""
attr network PipelinedExamSession
attr processid 15480
attr repetition 9
attr replication #9
attr resultdir results
attr runnumber 19
attr seedset 9
param **.teachersNumber 7
param **.answerTimeDistribution "\"lognormal\""
param **.minUniform 300
param **.maxUniform 1800
param **.scaleLognormal 6.8153
param **.shapeLognormal 0.5316

vector 0 PipelinedExamSession examinationTime:vector ETV
attr source examFinished
vector 1 PipelinedExamSession studentsWaitingTime:vector ETV
attr source waitingTime
vector 2 PipelinedExamSession teachersIdleTime:vector ETV
attr source idleTime
0	69	7353.838690687199	7353.8386906872
0	118	10932.402637473652	10065.675232962
0	129	12159.463781013708	9595.5954158819
0	160	15032.386222880872	11246.076000304
0	173	16191.776787376012	11255.701581654
0	218	20671.107131634368	14679.580533462
0	237	21655.212580114155	13683.328319933
0	250	22496.868144888432	12884.188782171
0	279	23805.728645551567	10484.662670812
0	298	25233.189638666713	10499.502951976
0	319	26754.897298731789	9376.3522585569
0	346	29092.394954429546	9803.7000680205
0	397	32531.105085845916	10925.370159922
0	416	34105.960300632426	11016.682124419
0	441	35681.329466578093	10897.29832887
0	458	36804.141012813165	10810.523832802
0	475	38214.104256130082	10381.137825177
0	502	40734.085058531878	11587.410215153
0	529	42068.425941665917	10691.423041998
0	562	43743.595334754611	11212.490248909
0	569	44084.4031442772	9420.7940838349
0	598	46681.235977803613	9803.5945731768
0	619	48110.969937954654	9763.6847571767
0	644	49887.841143558584	9027.1709092569
0	685	52676.121052017563	10463.510810906
0	696	53443.353087464712	10135.574705258
0	709	54704.446429474816	8532.6774623636
0	744	57176.84041519612	9113.1056322524
0	759	58812.983620315539	9474.4259750189
0	774	59789.728368629204	9310.4195792538
0	831	64032.657777616092	11175.778228468
0	860	65310.253657971108	9540.3005876937
0	867	65923.364347758111	7307.5945451663
0	892	67524.698377174434	7889.4006442615
0	919	69342.81641689962	8561.1611244817
0	946	71406.729078899109	9234.4011286949
0	985	73957.562419183048	9809.7408800031
0	996	75197.027122808011	9929.3272830567
0	1039	78793.758075846441	11131.838011787
0	1062	80014.925341344523	11318.231977269
0	1089	81634.041381955155	11233.271917728
0	1104	82344.710323544332	10164.254951207
0	1119	83677.260239523925	9959.1769835313
0	1132	84541.345946662373	7997.7263409817
0	1157	87179.696477695174	9163.4555643786
0	1202	90374.842767727627	10497.938561238
0	1219	91257.362404163726	9061.4012034245
0	1230	92872.082964180581	8619.1633883203
0	1291	96925.546995568441	11507.147089749
0	1310	97774.816008007368	9361.1631211649
0	1325	99224.855596793212	10091.085384562
0	1360	101357.420520688722	10138.491005287
0	1387	103201.939759044783	9997.7902699932
0	1390	103800.041990205648	8547.2875491271
0	1405	105500.844449806829	9310.6065427824
0	1462	109658.422725692868	12026.386500822
0	1479	111071.46258681537	11662.028205979
0	1500	112761.919432649405	11767.378945712
0	1505	113804.224599617525	10904.670076029
0	1548	115929.94118882681	9238.3445229933
0	1561	117890.218244946031	10200.053187576
0	1578	119025.047323925708	9504.5172508857
0	1623	122147.63334176047	10597.285747336
0	1644	122880.214006105329	8716.1026795987
0	1659	124145.946542281565	8540.8293160206
0	1674	126382.458737096372	8201.3854995302
0	1731	130329.95945050086	9509.3487081279
0	1754	131966.276114037748	10322.703527329
0	1765	133092.729721614793	10334.848362111
0	1816	135794.591661355431	9426.2891167069
0	1841	137354.052548663405	9938.1537826172
0	1858	138244.716305327114	8857.5396388761
0	1873	140662.036993773484	10201.446226573
0	1896	142034.650330634463	9095.701655733
0	1917	143596.608140490607	9529.0945444075
0	1962	146968.879199922118	11496.921988679
0	1979	148342.623223653561	11025.244486364
0	2008	149783.483171409264	9366.5400229095
0	2047	154055.03617325942	12278.92068803
0	2060	154517.947470785558	11604.788033734
0	2087	156104.149963130068	11331.321064076
0	2100	157205.432394743652	10755.902546404
0	2103	157886.593697052168	9438.8481422492
0	2152	161269.218511803416	10910.509346591
0	2183	162629.330045921891	11216.936965802
0	2194	163601.960236130098	9546.9240628707
0	2225	166759.318732803106	10870.89774951
0	2244	167783.060595877321	9184.3721343633
0	2275	169683.725681778008	9612.6693011369
0	2282	170168.813552996289	8493.673921264
0	2311	172731.012562272047	9937.4966062272
1	69	7353.838690687199	0
1	118	10932.402637473652	1334.7157854579
1	129	12159.463781013708	2633.6404251801
1	160	15032.386222880872	3706.1690085479
1	173	16191.776787376012	2830.800468235
1	218	20671.107131634368	0
1	237	21655.212580114155	5898.8951618816
1	250	22496.868144888432	7951.8539489324
1	279	23805.728645551567	4972.8292791664
1	298	25233.189638666713	3449.2864004771
1	319	26754.897298731789	1059.043035792
1	346	29092.394954429546	2705.9855633391
1	397	32531.105085845916	1890.6155873238
1	416	34105.960300632426	3270.1373697706
1	441	35681.329466578093	4354.5955230221
1	458	36804.141012813165	1696.0950198191
1	475	38214.104256130082	2206.8001326959
1	502	40734.085058531878	4006.6185047087
1	529	42068.425941665917	1694.7754446278
1	562	43743.595334754611	919.05719960974
1	569	44084.4031442772	3449.0407000342
1	598	46681.235977803613	1708.4560856782
1	619	48110.969937954654	3872.2189978
1	644	49887.841143558584	2007.4656704387
1	685	52676.121052017563	621.30292343515
1	696	53443.353087464712	2364.2992938301
1	709	54704.446429474816	1914.7648581376
1	744	57176.84041519612	949.31271592277
1	759	58812.983620315539	4375.6292547457
1	774	59789.728368629204	252.90480300168
1	831	64032.657777616092	1771.3550705617
1	860	65310.253657971108	2106.9102617981
1	867	65923.364347758111	1411.8631605057
1	892	67524.698377174434	0
1	919	69342.81641689962	1435.395434546
1	946	71406.729078899109	2144.607310881
1	985	73957.562419183048	261.67966781579
1	996	75197.027122808011	3487.4721133236
1	1039	78793.758075846441	2169.0385994007
1	1062	80014.925341344523	3535.7318986928
1	1089	81634.041381955155	2687.1530706353
1	1104	82344.710323544332	2998.6545533526
1	1119	83677.260239523925	3090.4007086326
1	1132	84541.345946662373	2008.4183118198
1	1157	87179.696477695174	2403.3189130643
1	1202	90374.842767727627	0
1	1219	91257.362404163726	2188.7222333236
1	1230	92872.082964180581	2051.9825976006
1	1291	96925.546995568441	0
1	1310	97774.816008007368	2565.962006697
1	1325	99224.855596793212	4443.204167028
1	1360	101357.420520688722	2418.1848396551
1	1387	103201.939759044783	1958.9923373282
1	1390	103800.041990205648	1692.0680556713
1	1405	105500.844449806829	2580.3910992305
1	1462	109658.422725692868	3030.5167187236
1	1479	111071.46258681537	5180.9675669021
1	1500	112761.919432649405	4428.9521319101
1	1505	113804.224599617525	2401.3834010269
1	1548	115929.94118882681	1313.8142299428
1	1561	117890.218244946031	5099.4910707013
1	1578	119025.047323925708	3348.9339461212
1	1623	122147.63334176047	1329.0228621622
1	1644	122880.214006105329	3044.867880721
1	1659	124145.946542281565	2127.6907331028
1	1674	126382.458737096372	0
1	1731	130329.95945050086	252.72733015074
1	1754	131966.276114037748	188.59239241743
1	1765	133092.729721614793	3775.0782440631
1	1816	135794.591661355431	2333.8045322512
1	1841	137354.052548663405	1356.3639740388
1	1858	138244.716305327114	658.6148131545
1	1873	140662.036993773484	2528.0696422314
1	1896	142034.650330634463	3326.0036560556
1	1917	143596.608140490607	2259.9113864397
1	1962	146968.879199922118	0
1	1979	148342.623223653561	2806.1555869616
1	2008	149783.483171409264	3452.7602768635
1	2047	154055.03617325942	1541.0099916172
1	2060	154517.947470785558	5190.7463292308
1	2087	156104.149963130068	6770.3344254884
1	2100	157205.432394743652	2977.1790635102
1	2103	157886.593697052168	4024.7828173056
1	2152	161269.218511803416	522.54118014049
1	2183	162629.330045921891	3149.4116072473
1	2194	163601.960236130098	4163.8076257214
1	2225	166759.318732803106	3558.0592112839
1	2244	167783.060595877321	3522.8927232456
1	2275	169683.725681778008	1155.6611788864
1	2282	170168.813552996289	365.98285683529
1	2311	172731.012562272047	2318.5478050827
2	2312	172800	66301.126316164
2	2312	172800	66308.168827163
2	2312	172800	71273.365085511
2	2312	172800	66910.10407499
2	2312	172800	79019.951010429
2	2312	172800	77303.65916586
2	2312	172800	69766.783670538

