version 2
run Pipelined_3Teachers-34-20190105-10:57:25-4336
attr configname Pipelined_3Teachers
attr datetime 20190105-10:57:25
attr experiment Pipelined_3Teachers
attr inifile ../simulations/omnetpp.ini
attr iterationvars "$0=\"uniform\""
attr iterationvarsf uniform-
attr measurement "$0=\"uniform\""
attr network PipelinedExamSession
attr processid 4336
attr repetition 34
attr replication #34
attr resultdir results
attr runnumber 34
attr seedset 34
param **.teachersNumber 3
param **.answerTimeDistribution "\"uniform\""
param **.minUniform 300
param **.maxUniform 900
param **.scaleLognormal 6.2854
param **.shapeLognormal 0.4724

vector 0 PipelinedExamSession examinationTime:vector ETV
attr source examFinished
vector 1 PipelinedExamSession studentID:vector ETV
attr source student
0	3129	260561.543617956353	2264.0850569587
0	3140	261159.815354738398	2011.6197566036
0	3147	261548.050874518244	1647.9049635585
0	3158	262217.853838065653	1632.715933118
0	3163	262621.028178837164	1461.2128240988
0	3172	263054.351145587875	1477.8471820056
0	3181	263741.894276998951	1524.0404389333
0	3194	264967.587068723529	2249.6836345643
0	3199	265569.195728050559	2222.654257156
0	3208	266104.584021493807	1943.5580218211
0	3217	266629.859394812971	1662.2723260894
0	3230	267950.029680551976	2207.6285032555
0	3237	268303.065090347096	2047.5231844001
0	3244	268986.407367093503	1845.1616315637
0	3253	270098.397426540047	2148.3677459881
0	3262	270513.636195240558	1671.3075745851
0	3271	271214.289429690704	1740.4985660221
0	3280	271800.47738961877	1590.2020659763
0	3291	272492.452787887321	1581.1489929445
0	3298	273238.561030430734	1891.907963343
0	3311	274575.103236269221	2489.716794854
0	3316	274984.766446240262	2074.1258864757
0	3327	275786.684057302788	2049.3365902919
0	3336	276481.935387616992	1906.8321513478
0	3345	277386.011832207457	2047.9429526255
0	3354	277820.623681275189	1668.2098311838
0	3361	278372.971239220366	1744.9894782621
0	3370	279078.401690628395	1657.3664364405
0	3379	280050.799544015915	2095.0885998085
0	3388	280384.478080831484	1627.5970168412
0	3399	281350.745263136939	1862.4666745774
0	3406	281815.414346521736	1605.3107407875
0	3415	282151.574594294667	1141.5748191532
0	3424	283087.499191705153	1597.5498733576
0	3433	284165.25398176165	2119.0332295373
0	3442	284769.083012966455	2122.3786246497
0	3451	285881.726900395022	2360.8503907453
0	3462	286708.867279719577	2289.3190132454
0	3471	287512.941873678953	2280.4428573232
0	3480	288314.698883565158	2255.6060316972
0	3489	289025.792130315693	2267.3590766732
0	3496	289902.581793721782	2269.5502819028
0	3505	290549.960203142854	2125.9073977824
0	3518	291333.724258141609	2016.9841711409
0	3523	291985.380396712588	1827.0576529205
0	3532	292651.71846002342	1944.5534224156
0	3545	293576.335020829009	2242.6107626874
0	3554	294349.057655269297	2148.5801457893
0	3559	294908.232949906977	1815.9485779703
0	3568	295424.254550971108	1847.9195301421
0	3577	296282.505669258552	1933.4480139893
0	3590	297311.109944852085	2247.1924330574
0	3597	297859.212780324758	1921.7522463296
0	3606	298341.958122001977	1702.9330544639
0	3615	299204.357367195205	1893.2474223431
0	3624	299906.609736336411	2014.5607901271
0	3635	300805.333751114101	2315.3160275426
0	3642	301300.823742756636	2024.4353895541
0	3651	302402.518936526046	2489.6835867316
0	3660	302855.619674501956	2050.2859233879
0	3663	303179.109666170568	1593.3780464809
0	3676	304315.482726646603	1891.9598910492
0	3685	304810.885307751611	1563.82334386
0	3694	305388.345261476949	1604.3431917205
0	3707	306688.751416560277	2044.897200074
0	3716	307521.323008881896	2209.9881072063
0	3721	307883.390941796839	1870.6857358105
0	3730	308733.977882517516	2045.2264659572
0	3741	309697.058452293291	2175.7354434114
0	3748	310190.221403539195	1952.7901328634
0	3757	311141.599351773054	2132.0807524491
0	3770	312084.874206734836	2310.8440641314
0	3779	312809.189782105401	2143.4458795935
0	3788	313652.276053139955	2228.3334578387
0	3795	314336.528501193986	2251.6542944592
0	3806	315057.755160005778	2248.5653779004
0	3813	315709.750835364699	2057.4747822247
0	3820	316265.331089124099	1792.1455215197
0	3831	317136.993177607671	2079.2380176019
0	3840	317890.783312171713	1943.4499813244
0	3849	318359.019120829195	1641.3178961724
0	3856	318892.368670972079	1514.1188417561
0	3869	320337.269183294863	2402.122459095
0	3876	321012.459048908219	2181.31503677
0	3885	321872.325630532593	2242.3904426862
0	3896	322656.006522383556	2318.7373390887
0	3903	323200.496077397853	1992.9462502711
0	3914	324169.752028305098	2219.3130172323
0	3919	324769.421504857033	2113.4149824735
0	3932	325733.910327684149	2304.4350406621
0	3939	326362.643628241509	2192.8915999364
0	3946	326921.707837656155	1892.456321558
0	3957	327810.796970129028	2076.8866424449
0	3968	328594.103599526004	2038.2499694824
0	3975	329316.903422679768	2251.7207889352
0	3984	329917.991457693295	2041.4871658199
0	3991	330731.12232140267	2137.0187218767
0	4002	331273.547564260678	1893.7280712649
0	4009	331647.100794548185	1408.8187112007
0	4018	332681.315473141166	1866.9631273951
0	4027	333128.177236486244	1647.4448512774
0	4040	334333.847866393643	2163.8286539353
0	4045	334973.698326386529	1968.8929607626
0	4054	335452.56886007266	1951.2738749385
0	4065	336317.378238681721	1983.5303722881
0	4072	336895.676454668882	1797.2632415593
0	4085	338049.275184050219	2531.6592349671
0	4092	338689.179525431262	2322.3036155105
0	4103	339527.779867686348	2281.9057680666
0	4108	340279.093262320401	2229.8180782702
0	4121	341190.8797058277	2474.830690166
0	4130	341891.114434646459	2363.3345669601
0	4139	342648.7711699214	2337.8564468119
0	4148	343472.041602898406	2281.1618970707
0	4153	343796.412805980088	1905.2983713336
0	4166	345054.320872994156	2405.5497030728
0	4171	345364.608542108925	1892.5669392105
0	4184	346461.877630976976	2275.3874864895
0	4189	346995.607784064503	1941.2869110703
0	4200	347778.72834037991	1853.7300354335
0	4207	348487.788929650576	2025.9112986736
0	4216	349578.55188050309	2305.9328350704
0	4225	350130.571341002377	2016.4292156696
0	4236	351142.311611585336	2149.2961381562
0	4243	351588.863064581545	1942.0325763524
0	4254	352342.419536970572	1824.3126265705
0	4263	353156.358019821362	1995.005977666
0	4270	353997.557351365702	2116.7862790637
0	4279	354393.391116801666	2009.5369393006
0	4288	355096.76419375466	1845.2223756351
0	4301	355848.058955557662	1798.624146916
0	4310	356747.222579224053	2051.3435726054
0	4315	357093.233845755476	1876.4663998503
0	4328	358156.159252300877	2308.1002967432
0	4337	359013.955354504306	2266.7327752803
0	4346	359816.699657589216	2493.9276112709
0	4353	360320.805607549865	2164.646355249
0	4360	360997.632300853748	1983.6769463494
0	4369	361541.453171242048	1724.7535136528
0	4378	362231.813489366342	1845.2225702349
0	4391	363426.107925083508	2304.0030176751
0	4398	364158.106988389065	2443.4443019796
0	4409	365005.191757902523	2471.1998760235
0	4414	365333.671095175689	1907.5631700922
0	4423	365898.400862887521	1584.2212391552
0	4436	367576.144259423038	2570.9525015205
0	4445	368340.633150050437	2537.0511464775
0	4454	368927.210206026232	2243.626403762
0	4459	369406.167127937099	1830.0228685141
0	4468	369948.410505708328	1607.7773556579
0	4477	370702.801954094341	1775.5917480681
0	4488	371729.878416610902	1924.6892686933
0	4495	372327.727080881616	1903.3508419991
0	4504	373034.2558227014	1756.5522119869
0	4515	373832.573842629811	2057.2024659254
0	4522	374500.339997140711	1917.4451060593
0	4531	375123.448458407094	1697.7917909157
0	4540	376011.221523536389	1814.5902228076
0	4551	376855.681309523081	1958.478396479
0	4558	377578.612827463095	2177.0049876999
0	4569	378379.176665050929	2101.5599540435
0	4578	379123.118442529832	2033.1743806601
0	4587	379755.300028855001	2015.0042076129
0	4594	380456.967243924758	2021.3604146149
0	4605	381468.563059112078	2345.017489465
0	4612	381939.51944326984	1972.058022581
0	4621	382857.200025161749	2010.4700800963
0	4630	383552.7651736513	1866.671962291
0	4641	384571.115327579922	2015.1843173895
0	4648	385109.814959485105	1979.5143566094
0	4661	386023.59714168126	2057.9891013913
0	4668	386653.968701977304	1923.2629768085
0	4679	387424.706504819936	2266.8761214707
0	4684	387899.236614676214	1875.639472995
0	4693	388626.099346345312	1832.5484442059
0	4702	389721.525960881285	2296.8194560613
0	4715	390714.005479356296	2389.4250622485
0	4720	391155.753438826672	2089.8730779067
0	4729	391658.67984252984	1765.4798063915
0	4740	392696.731762262083	1982.7262829058
0	4751	393556.401421967916	2044.3610956427
0	4760	394289.351535961054	1987.6257849857
0	4769	395142.582059511937	2354.1131892242
0	4778	395991.596672823675	2435.1952508558
0	4783	396313.558227242924	2024.2066912819
0	4792	396891.711939638503	1749.1298801266
0	4801	397706.449310900666	1714.852638077
0	4814	398545.615626499079	1757.5936075766
0	4821	399168.889066670112	1697.7695439477
0	4828	399743.474274873756	1716.7010391131
0	4839	400312.339916406222	1766.7242899071
0	4846	400874.292592098959	1445.8415509667
0	4859	401975.389788765483	1986.5824248176
0	4866	402515.821470832475	1742.1100152656
0	4875	403371.520250849449	2067.0726251788
0	4886	404310.372791346185	2334.9830025807
0	4893	405115.768867917381	2474.2227128707
0	4902	405566.832317411922	2103.8560604677
0	4909	406567.824624432273	2257.4518330861
0	4918	407078.046839358307	1897.2971809097
0	4927	407958.52941311898	1921.1499189958
0	4938	408948.844343516998	2129.9566187896
0	4949	409819.284342415653	2152.3025102913
0	4954	410152.063525607832	1671.2207158562
0	4965	411200.901246210583	2130.3226305172
0	4976	412095.279441867047	2275.9950994514
0	4985	412908.369899354898	2363.2847426925
0	4992	413523.579958314099	2297.5420222152
0	5003	414384.803790925094	2289.524349058
0	5010	415077.767463494116	2169.3975641392
0	5019	415676.471547922143	1991.7756899726
0	5028	416220.911027211719	1836.1072362866
0	5037	416844.437365047657	1616.6663476266
0	5046	417776.815201761224	2033.0664844718
0	5053	418430.90611402879	2085.4710563086
0	5064	419239.722296828428	2088.7424741406
0	5075	420015.922475885624	2080.690215854
0	5080	420497.941080713669	2025.4545444623
0	5093	421631.488837720851	2285.325986892
0	5102	422500.267976336206	2484.3455004506
0	5107	422810.738560790221	2075.6750794128
0	5120	423965.312421647857	2333.823583927
0	5125	424552.091010147731	2051.8230338115
0	5134	425363.224867964188	2073.0747513939
0	5147	426568.286904925506	2602.9744832776
0	5152	426914.210625970762	2067.4609742593
0	5165	427828.761597583096	2108.9748743456
0	5170	428258.041376620557	1689.7544716951
0	5179	429332.149397861238	2250.7582922
0	5188	429859.432419994871	2030.6708224118
0	5201	430956.104043172698	2254.9781860784
0	5206	431293.739165598552	1811.5759549197
0	5217	432398.256007488842	2310.5294721667
0	5226	432993.911751173463	2037.8077080008
0	5233	433679.066287167397	1951.6378898174
0	5242	434096.863572718602	1481.4142920077
0	5255	435184.96810100044	1812.366272416
0	5264	436032.823967328322	2134.4449042808
0	5269	436334.980040648979	1966.2857032847
0	5278	436832.800759328556	1647.8326583281
0	5291	437705.580567335737	1672.7566000074
0	5298	438108.643850544495	1658.6892517749
0	5309	439214.85426505099	2313.206094224
0	5318	439860.319778183503	2154.7392108478
0	5325	440246.022404031856	1913.8665726408
0	5332	440790.633743349491	1575.7794782985
0	5343	441800.877492176396	1940.5577139929
0	5354	442662.319508940009	1978.7076348905
0	5363	443534.112304262845	2200.9311484639
0	5372	444410.75061089362	2594.997859234
0	5379	445075.627808086602	2413.3082991466
0	5386	445792.455438477946	2258.3431342151
0	5397	446737.383200973301	2326.6325900797
0	5408	447423.182701645448	2148.11513694
0	5413	447815.038186032354	1844.9928007554
0	5422	448392.160181701212	1642.7858691663
0	5431	449289.312858134537	1866.1301564891
0	5440	449788.429428404226	1519.807033008
0	5451	450805.664617661415	1961.549490178
0	5460	451621.081414818793	2047.3173671868
0	5467	451935.281707718997	1586.0419535078
0	5478	452958.68424475196	1919.5619203616
0	5487	453882.513386802777	2259.4267840963
0	5494	454380.2871922497	1956.374096917
0	5505	454930.418754648446	1689.0552765224
0	5514	455713.389470195427	1648.5076500569
0	5521	456591.825980599999	2049.4579788297
0	5530	457262.271450553118	2150.1832427457
0	5539	457956.168040121003	2008.7831019424
0	5548	458626.329271355673	1930.9212421998
0	5557	459024.686331069127	1585.8207786921
0	5566	460262.082636309817	1975.3480831627
0	5577	461193.604987626925	2302.1184777841
0	5586	461773.425400676235	2172.8036302607
0	5593	462288.776439987152	1823.791684024
0	5602	463266.844984190568	1992.3908437137
0	5613	464241.127894492849	2265.0507469196
0	5620	464690.006181551173	1968.3878186624
0	5631	465585.743095306709	2089.0539553016
0	5640	466305.315512605041	2050.4116133787
0	5647	466851.420845696732	1775.6109588314
0	5658	467810.129855806038	2024.6749873739
0	5665	468493.50953665565	1850.916113751
0	5676	469329.377109278023	1880.0325865857
0	5687	470489.485770603671	2339.0760307666
0	5692	470838.251775177225	1906.1104546767
0	5703	471609.260367415874	1915.7805782743
0	5710	472088.195104105427	1598.7093335018
0	5719	472577.654235810071	1444.4208289962
0	5728	473078.013667697116	1444.8543674313
0	5741	474463.766541704565	2278.7282518577
0	5750	475184.496214287385	2124.9567927327
0	5759	476031.698097428336	2401.4403589536
0	5768	476897.40351922813	2433.6369775236
0	5775	477326.069306815072	2141.5730925277
0	5782	478121.909563243418	2090.2114658151
0	5791	478625.412772223383	1728.0092529953
0	5800	479657.606797199726	2048.3575063292
0	5811	480766.47692117843	2324.5654079597
0	5818	481123.528264649242	1933.6745727807
0	5827	481714.897161489382	1655.6321769487
0	5836	482561.891506332935	1772.5105371326
0	5845	483676.731267711178	2281.4106356353
0	5856	484279.099048627571	2037.1203018352
0	5863	484827.972881589115	1830.2654307336
0	5874	486377.165627153622	2539.4225236494
0	5885	487124.151017144354	2408.8013407309
0	5894	487965.135543560641	2367.1054040082
0	5901	488494.946597842531	2063.8685105368
0	5908	489276.439353218334	2152.288336074
0	5917	489993.727973056989	2028.5924294963
0	5930	490903.293224237892	2261.2331662327
0	5935	491328.403738187659	1806.7039431073
0	5946	492345.801615994456	2160.112697538
0	5955	492939.354300638693	2036.0610764008
0	5962	493913.249306660178	2181.3134798314
0	5971	494644.179488997939	2142.6297199912
0	5980	495456.557458732311	2117.9199102335
0	5989	495935.641502821852	1824.4652248453
0	6002	497038.460034225169	2183.3672602661
0	6007	497487.215549033168	1775.3889849409
0	6016	498492.819056706536	2124.4483983144
0	6029	499344.481561565805	2306.0215273406
0	6036	499811.138101341236	1965.4525823425
0	6047	500618.682135874439	2087.6344545744
0	6054	501173.817570973221	1829.3360094074
0	6065	502231.323983939398	2271.8948114198
0	6072	502949.106224812601	2330.4240889382
0	6083	503858.877850882743	2441.4223036263
0	6092	504679.833952244405	2448.509968305
0	6101	505163.865006621961	2132.0043754298
0	6110	505630.991085944731	1772.113235062
0	6117	506269.571498036418	1589.737545792
0	6124	506897.984206164289	1734.1191995423
0	6133	507603.568073222447	1972.5769872777
0	6142	508344.968165271018	1911.4065977745
0	6153	509129.734952515024	2035.6916340999
0	6160	509608.849850669537	1866.1926889792
0	6171	510652.951655862887	2254.8654793762
0	6180	511037.042794469777	1802.1751881111
0	6187	511717.734862910617	1724.3495784234
0	6198	512428.326255502212	1747.3525787238
0	6205	512906.015255022827	1612.4007340986
0	6216	513929.841203056309	1899.730957998
0	6227	514532.251270534504	2097.9315179866
0	6236	515338.262148248065	2222.9054551106
0	6243	515724.883713014457	1780.206581438
0	6254	516951.348579581861	2419.0973090474
0	6263	517740.86948577318	2402.6073375251
0	6270	518072.526911459897	1880.0603985786
0	6273	518400.68182437684	1449.333244795
0	6288	519905.073664477129	2164.2041787039
0	6295	520469.914221949909	1863.8500727713
0	6304	521376.13407466564	2151.972144004
0	6317	522202.986388234455	2188.0264888052
0	6322	522525.062798336182	1669.7255245876
0	6331	523406.63914564069	1700.9267306887
0	6340	524369.20677213933	2166.2203839049
0	6349	524779.57293740477	1776.892014686
0	6358	525676.079657999833	1863.7030766811
0	6367	526408.832119312171	1990.5467777979
0	6376	526885.122210346196	1652.3112997413
0	6389	528062.356629129534	1977.6688906364
0	6394	528546.896442258765	1960.5803689454
0	6407	529707.304058270564	2535.4524336755
0	6416	530550.280782021617	2487.9241528921
0	6423	531223.119326401537	2405.035615107
0	6430	531780.432392796537	2073.128334526
0	6439	532516.310800658575	1966.030018637
0	6450	533462.16876818802	2147.9732577223
0	6461	534263.329391274637	2092.851038184
0	6468	534818.539610691404	2009.8637870047
0	6475	535278.859352599865	1809.3806069344
0	6484	536100.601361040062	1837.2719697654
0	6493	537031.243126094377	2136.9709327351
0	6504	537552.726699365339	1848.6298131756
0	6511	538184.185532201118	1870.9864560049
0	6520	539011.065081646702	1873.3757050708
0	6533	540163.791474513746	2240.0915983133
0	6538	540824.500648397989	2267.7128682844
0	6551	541708.696189848743	2417.2646965832
0	6560	542553.670107107646	2389.8786325939
0	6565	542968.980808602683	1980.8322102763
0	6576	543539.274450391568	1830.5782605428
0	6585	544259.659741027318	1705.9896339197
0	6592	544680.443155439608	1605.3579317406
0	6601	545577.469816664271	1868.1517071091
0	6614	546734.462945396117	2455.1210973412
0	6619	547294.267343636639	2132.4531377759
0	6632	547898.990096803791	1878.9251815528
0	6639	548460.462671890891	1725.9997264948
0	6648	549490.465166000686	2082.1152286604
0	6655	550097.639586031474	2198.6494892277
0	6664	550687.967091472856	1925.0486103818
0	6677	552024.729747092387	2388.7100065593
0	6684	552368.21729522202	1844.3235038314
0	6695	553266.870442125982	2092.603411898
0	6704	553822.545160353219	1797.8154132608
0	6713	554595.750920707395	2109.9079526961
0	6720	555181.853820383584	1914.9833782576
0	6727	555514.883985696396	1692.3388253432
0	6738	556668.36556680504	2072.6146460976
0	6745	557336.690461915021	2074.2146837991
0	6754	557785.816416749766	1943.6686488334
0	6763	558820.790208689904	2095.1303819194
0	6774	559741.749244602433	2122.3300439771
0	6781	560559.419175423718	2120.9638996515
0	6792	561751.074591418765	2485.2401643991
0	6803	562506.651411345265	2378.1818688847
0	6810	563240.385252004526	2306.7736032419
0	6817	563690.937188174612	1893.1775450706
0	6826	564133.462291443757	1626.8108800985
0	6839	565322.037623869292	2001.7256427091
0	6846	565648.507058154828	1658.6239705794
0	6855	566512.38413234245	1889.9667658377
0	6862	566891.641526995263	1569.603903126
0	6873	568020.673314761407	2241.9439610559
0	6880	568740.856205904893	2166.5882532019
0	6893	569836.972882691808	2444.1954849288
0	6900	570411.268473649435	2206.9331890438
0	6911	571399.802289297841	2425.2129315399
0	6918	572256.978245778046	2420.0053630862
0	6925	572574.531871173568	2042.6274132449
0	6934	573540.079337591342	2140.2770482935
0	6945	574536.766596883572	2245.8287840243
0	6952	574961.776485806367	1855.8985367417
0	6965	575747.327837906814	1897.4519079085
0	6970	576069.639675412363	1499.990647193
0	6983	577154.975904431231	1939.0250007156
0	6988	577704.132208228148	1956.8043703213
0	6997	578124.436521157659	1717.5774076022
0	7008	579142.374829715155	1987.3989252839
0	7017	579863.661504071243	1841.0141785629
0	7026	580456.145522464104	1829.7907509841
0	7033	580868.180456478186	1470.3193397261
0	7042	581325.062593957447	1422.4741777405
0	7055	582557.172646746077	2076.9583255984
0	7064	583219.84864901755	1929.4155436568
0	7071	583826.691104192324	2098.1691267807
0	7078	584224.196043564044	1667.023396818
0	7087	584804.745469009541	1584.896819992
0	7098	585826.09282331545	1888.3053924423
0	7105	586184.575057262593	1560.1895600092
0	7110	586654.004933405706	1228.1507775653
0	7127	588335.563684813716	2412.3530657496
0	7136	589082.138518011235	2347.8828905616
0	7141	589551.004829211198	2083.093937533
0	7150	590211.180805508085	1875.6171206944
0	7159	591308.149546338283	2226.011028327
0	7172	592099.70194213096	2182.8475282062
0	7179	592876.641412870995	2117.1551826876
0	7190	593327.821349864862	1680.0417501479
0	7199	594190.180383576117	2090.4784414452
0	7208	594821.199586987532	1892.9398981389
0	7215	595502.161022694818	2174.33967283
0	7222	596123.71882209558	1933.5384385195
0	7235	597355.626404844261	2534.4268178567
0	7242	598078.489826805926	2425.1120377332
0	7249	598603.273334540464	2117.3259089235
0	7258	599288.967844471372	1933.3414396271
0	7267	599901.781742787026	1792.7470203023
0	7280	601420.029543712772	2591.1442485172
0	7289	601888.385937362946	2221.547457017
0	7296	602456.346993567459	1917.8565611131
0	7303	603073.739055404476	1653.7095116917
0	7314	604249.442003108597	2361.0560657457
1	3129	260561.543617956353	346
1	3140	261159.815354738398	347
1	3147	261548.050874518244	348
1	3158	262217.853838065653	349
1	3163	262621.028178837164	350
1	3172	263054.351145587875	351
1	3181	263741.894276998951	352
1	3194	264967.587068723529	353
1	3199	265569.195728050559	354
1	3208	266104.584021493807	355
1	3217	266629.859394812971	356
1	3230	267950.029680551976	357
1	3237	268303.065090347096	358
1	3244	268986.407367093503	359
1	3253	270098.397426540047	360
1	3262	270513.636195240558	361
1	3271	271214.289429690704	362
1	3280	271800.47738961877	363
1	3291	272492.452787887321	364
1	3298	273238.561030430734	365
1	3311	274575.103236269221	366
1	3316	274984.766446240262	367
1	3327	275786.684057302788	368
1	3336	276481.935387616992	369
1	3345	277386.011832207457	370
1	3354	277820.623681275189	371
1	3361	278372.971239220366	372
1	3370	279078.401690628395	373
1	3379	280050.799544015915	374
1	3388	280384.478080831484	375
1	3399	281350.745263136939	376
1	3406	281815.414346521736	377
1	3415	282151.574594294667	378
1	3424	283087.499191705153	379
1	3433	284165.25398176165	380
1	3442	284769.083012966455	381
1	3451	285881.726900395022	382
1	3462	286708.867279719577	383
1	3471	287512.941873678953	384
1	3480	288314.698883565158	385
1	3489	289025.792130315693	386
1	3496	289902.581793721782	387
1	3505	290549.960203142854	388
1	3518	291333.724258141609	389
1	3523	291985.380396712588	390
1	3532	292651.71846002342	391
1	3545	293576.335020829009	392
1	3554	294349.057655269297	393
1	3559	294908.232949906977	394
1	3568	295424.254550971108	395
1	3577	296282.505669258552	396
1	3590	297311.109944852085	397
1	3597	297859.212780324758	398
1	3606	298341.958122001977	399
1	3615	299204.357367195205	400
1	3624	299906.609736336411	401
1	3635	300805.333751114101	402
1	3642	301300.823742756636	403
1	3651	302402.518936526046	404
1	3660	302855.619674501956	405
1	3663	303179.109666170568	406
1	3676	304315.482726646603	407
1	3685	304810.885307751611	408
1	3694	305388.345261476949	409
1	3707	306688.751416560277	410
1	3716	307521.323008881896	411
1	3721	307883.390941796839	412
1	3730	308733.977882517516	413
1	3741	309697.058452293291	414
1	3748	310190.221403539195	415
1	3757	311141.599351773054	416
1	3770	312084.874206734836	417
1	3779	312809.189782105401	418
1	3788	313652.276053139955	419
1	3795	314336.528501193986	420
1	3806	315057.755160005778	421
1	3813	315709.750835364699	422
1	3820	316265.331089124099	423
1	3831	317136.993177607671	424
1	3840	317890.783312171713	425
1	3849	318359.019120829195	426
1	3856	318892.368670972079	427
1	3869	320337.269183294863	428
1	3876	321012.459048908219	429
1	3885	321872.325630532593	430
1	3896	322656.006522383556	431
1	3903	323200.496077397853	432
1	3914	324169.752028305098	433
1	3919	324769.421504857033	434
1	3932	325733.910327684149	435
1	3939	326362.643628241509	436
1	3946	326921.707837656155	437
1	3957	327810.796970129028	438
1	3968	328594.103599526004	439
1	3975	329316.903422679768	440
1	3984	329917.991457693295	441
1	3991	330731.12232140267	442
1	4002	331273.547564260678	443
1	4009	331647.100794548185	444
1	4018	332681.315473141166	445
1	4027	333128.177236486244	446
1	4040	334333.847866393643	447
1	4045	334973.698326386529	448
1	4054	335452.56886007266	449
1	4065	336317.378238681721	450
1	4072	336895.676454668882	451
1	4085	338049.275184050219	452
1	4092	338689.179525431262	453
1	4103	339527.779867686348	454
1	4108	340279.093262320401	455
1	4121	341190.8797058277	456
1	4130	341891.114434646459	457
1	4139	342648.7711699214	458
1	4148	343472.041602898406	459
1	4153	343796.412805980088	460
1	4166	345054.320872994156	461
1	4171	345364.608542108925	462
1	4184	346461.877630976976	463
1	4189	346995.607784064503	464
1	4200	347778.72834037991	465
1	4207	348487.788929650576	466
1	4216	349578.55188050309	467
1	4225	350130.571341002377	468
1	4236	351142.311611585336	469
1	4243	351588.863064581545	470
1	4254	352342.419536970572	471
1	4263	353156.358019821362	472
1	4270	353997.557351365702	473
1	4279	354393.391116801666	474
1	4288	355096.76419375466	475
1	4301	355848.058955557662	476
1	4310	356747.222579224053	477
1	4315	357093.233845755476	478
1	4328	358156.159252300877	479
1	4337	359013.955354504306	480
1	4346	359816.699657589216	481
1	4353	360320.805607549865	482
1	4360	360997.632300853748	483
1	4369	361541.453171242048	484
1	4378	362231.813489366342	485
1	4391	363426.107925083508	486
1	4398	364158.106988389065	487
1	4409	365005.191757902523	488
1	4414	365333.671095175689	489
1	4423	365898.400862887521	490
1	4436	367576.144259423038	491
1	4445	368340.633150050437	492
1	4454	368927.210206026232	493
1	4459	369406.167127937099	494
1	4468	369948.410505708328	495
1	4477	370702.801954094341	496
1	4488	371729.878416610902	497
1	4495	372327.727080881616	498
1	4504	373034.2558227014	499
1	4515	373832.573842629811	500
1	4522	374500.339997140711	501
1	4531	375123.448458407094	502
1	4540	376011.221523536389	503
1	4551	376855.681309523081	504
1	4558	377578.612827463095	505
1	4569	378379.176665050929	506
1	4578	379123.118442529832	507
1	4587	379755.300028855001	508
1	4594	380456.967243924758	509
1	4605	381468.563059112078	510
1	4612	381939.51944326984	511
1	4621	382857.200025161749	512
1	4630	383552.7651736513	513
1	4641	384571.115327579922	514
1	4648	385109.814959485105	515
1	4661	386023.59714168126	516
1	4668	386653.968701977304	517
1	4679	387424.706504819936	518
1	4684	387899.236614676214	519
1	4693	388626.099346345312	520
1	4702	389721.525960881285	521
1	4715	390714.005479356296	522
1	4720	391155.753438826672	523
1	4729	391658.67984252984	524
1	4740	392696.731762262083	525
1	4751	393556.401421967916	526
1	4760	394289.351535961054	527
1	4769	395142.582059511937	528
1	4778	395991.596672823675	529
1	4783	396313.558227242924	530
1	4792	396891.711939638503	531
1	4801	397706.449310900666	532
1	4814	398545.615626499079	533
1	4821	399168.889066670112	534
1	4828	399743.474274873756	535
1	4839	400312.339916406222	536
1	4846	400874.292592098959	537
1	4859	401975.389788765483	538
1	4866	402515.821470832475	539
1	4875	403371.520250849449	540
1	4886	404310.372791346185	541
1	4893	405115.768867917381	542
1	4902	405566.832317411922	543
1	4909	406567.824624432273	544
1	4918	407078.046839358307	545
1	4927	407958.52941311898	546
1	4938	408948.844343516998	547
1	4949	409819.284342415653	548
1	4954	410152.063525607832	549
1	4965	411200.901246210583	550
1	4976	412095.279441867047	551
1	4985	412908.369899354898	552
1	4992	413523.579958314099	553
1	5003	414384.803790925094	554
1	5010	415077.767463494116	555
1	5019	415676.471547922143	556
1	5028	416220.911027211719	557
1	5037	416844.437365047657	558
1	5046	417776.815201761224	559
1	5053	418430.90611402879	560
1	5064	419239.722296828428	561
1	5075	420015.922475885624	562
1	5080	420497.941080713669	563
1	5093	421631.488837720851	564
1	5102	422500.267976336206	565
1	5107	422810.738560790221	566
1	5120	423965.312421647857	567
1	5125	424552.091010147731	568
1	5134	425363.224867964188	569
1	5147	426568.286904925506	570
1	5152	426914.210625970762	571
1	5165	427828.761597583096	572
1	5170	428258.041376620557	573
1	5179	429332.149397861238	574
1	5188	429859.432419994871	575
1	5201	430956.104043172698	576
1	5206	431293.739165598552	577
1	5217	432398.256007488842	578
1	5226	432993.911751173463	579
1	5233	433679.066287167397	580
1	5242	434096.863572718602	581
1	5255	435184.96810100044	582
1	5264	436032.823967328322	583
1	5269	436334.980040648979	584
1	5278	436832.800759328556	585
1	5291	437705.580567335737	586
1	5298	438108.643850544495	587
1	5309	439214.85426505099	588
1	5318	439860.319778183503	589
1	5325	440246.022404031856	590
1	5332	440790.633743349491	591
1	5343	441800.877492176396	592
1	5354	442662.319508940009	593
1	5363	443534.112304262845	594
1	5372	444410.75061089362	595
1	5379	445075.627808086602	596
1	5386	445792.455438477946	597
1	5397	446737.383200973301	598
1	5408	447423.182701645448	599
1	5413	447815.038186032354	600
1	5422	448392.160181701212	601
1	5431	449289.312858134537	602
1	5440	449788.429428404226	603
1	5451	450805.664617661415	604
1	5460	451621.081414818793	605
1	5467	451935.281707718997	606
1	5478	452958.68424475196	607
1	5487	453882.513386802777	608
1	5494	454380.2871922497	609
1	5505	454930.418754648446	610
1	5514	455713.389470195427	611
1	5521	456591.825980599999	612
1	5530	457262.271450553118	613
1	5539	457956.168040121003	614
1	5548	458626.329271355673	615
1	5557	459024.686331069127	616
1	5566	460262.082636309817	617
1	5577	461193.604987626925	618
1	5586	461773.425400676235	619
1	5593	462288.776439987152	620
1	5602	463266.844984190568	621
1	5613	464241.127894492849	622
1	5620	464690.006181551173	623
1	5631	465585.743095306709	624
1	5640	466305.315512605041	625
1	5647	466851.420845696732	626
1	5658	467810.129855806038	627
1	5665	468493.50953665565	628
1	5676	469329.377109278023	629
1	5687	470489.485770603671	630
1	5692	470838.251775177225	631
1	5703	471609.260367415874	632
1	5710	472088.195104105427	633
1	5719	472577.654235810071	634
1	5728	473078.013667697116	635
1	5741	474463.766541704565	636
1	5750	475184.496214287385	637
1	5759	476031.698097428336	638
1	5768	476897.40351922813	639
1	5775	477326.069306815072	640
1	5782	478121.909563243418	641
1	5791	478625.412772223383	642
1	5800	479657.606797199726	643
1	5811	480766.47692117843	644
1	5818	481123.528264649242	645
1	5827	481714.897161489382	646
1	5836	482561.891506332935	647
1	5845	483676.731267711178	648
1	5856	484279.099048627571	649
1	5863	484827.972881589115	650
1	5874	486377.165627153622	651
1	5885	487124.151017144354	652
1	5894	487965.135543560641	653
1	5901	488494.946597842531	654
1	5908	489276.439353218334	655
1	5917	489993.727973056989	656
1	5930	490903.293224237892	657
1	5935	491328.403738187659	658
1	5946	492345.801615994456	659
1	5955	492939.354300638693	660
1	5962	493913.249306660178	661
1	5971	494644.179488997939	662
1	5980	495456.557458732311	663
1	5989	495935.641502821852	664
1	6002	497038.460034225169	665
1	6007	497487.215549033168	666
1	6016	498492.819056706536	667
1	6029	499344.481561565805	668
1	6036	499811.138101341236	669
1	6047	500618.682135874439	670
1	6054	501173.817570973221	671
1	6065	502231.323983939398	672
1	6072	502949.106224812601	673
1	6083	503858.877850882743	674
1	6092	504679.833952244405	675
1	6101	505163.865006621961	676
1	6110	505630.991085944731	677
1	6117	506269.571498036418	678
1	6124	506897.984206164289	679
1	6133	507603.568073222447	680
1	6142	508344.968165271018	681
1	6153	509129.734952515024	682
1	6160	509608.849850669537	683
1	6171	510652.951655862887	684
1	6180	511037.042794469777	685
1	6187	511717.734862910617	686
1	6198	512428.326255502212	687
1	6205	512906.015255022827	688
1	6216	513929.841203056309	689
1	6227	514532.251270534504	690
1	6236	515338.262148248065	691
1	6243	515724.883713014457	692
1	6254	516951.348579581861	693
1	6263	517740.86948577318	694
1	6270	518072.526911459897	695
1	6273	518400.68182437684	696
1	6288	519905.073664477129	697
1	6295	520469.914221949909	698
1	6304	521376.13407466564	699
1	6317	522202.986388234455	700
1	6322	522525.062798336182	701
1	6331	523406.63914564069	702
1	6340	524369.20677213933	703
1	6349	524779.57293740477	704
1	6358	525676.079657999833	705
1	6367	526408.832119312171	706
1	6376	526885.122210346196	707
1	6389	528062.356629129534	708
1	6394	528546.896442258765	709
1	6407	529707.304058270564	710
1	6416	530550.280782021617	711
1	6423	531223.119326401537	712
1	6430	531780.432392796537	713
1	6439	532516.310800658575	714
1	6450	533462.16876818802	715
1	6461	534263.329391274637	716
1	6468	534818.539610691404	717
1	6475	535278.859352599865	718
1	6484	536100.601361040062	719
1	6493	537031.243126094377	720
1	6504	537552.726699365339	721
1	6511	538184.185532201118	722
1	6520	539011.065081646702	723
1	6533	540163.791474513746	724
1	6538	540824.500648397989	725
1	6551	541708.696189848743	726
1	6560	542553.670107107646	727
1	6565	542968.980808602683	728
1	6576	543539.274450391568	729
1	6585	544259.659741027318	730
1	6592	544680.443155439608	731
1	6601	545577.469816664271	732
1	6614	546734.462945396117	733
1	6619	547294.267343636639	734
1	6632	547898.990096803791	735
1	6639	548460.462671890891	736
1	6648	549490.465166000686	737
1	6655	550097.639586031474	738
1	6664	550687.967091472856	739
1	6677	552024.729747092387	740
1	6684	552368.21729522202	741
1	6695	553266.870442125982	742
1	6704	553822.545160353219	743
1	6713	554595.750920707395	744
1	6720	555181.853820383584	745
1	6727	555514.883985696396	746
1	6738	556668.36556680504	747
1	6745	557336.690461915021	748
1	6754	557785.816416749766	749
1	6763	558820.790208689904	750
1	6774	559741.749244602433	751
1	6781	560559.419175423718	752
1	6792	561751.074591418765	753
1	6803	562506.651411345265	754
1	6810	563240.385252004526	755
1	6817	563690.937188174612	756
1	6826	564133.462291443757	757
1	6839	565322.037623869292	758
1	6846	565648.507058154828	759
1	6855	566512.38413234245	760
1	6862	566891.641526995263	761
1	6873	568020.673314761407	762
1	6880	568740.856205904893	763
1	6893	569836.972882691808	764
1	6900	570411.268473649435	765
1	6911	571399.802289297841	766
1	6918	572256.978245778046	767
1	6925	572574.531871173568	768
1	6934	573540.079337591342	769
1	6945	574536.766596883572	770
1	6952	574961.776485806367	771
1	6965	575747.327837906814	772
1	6970	576069.639675412363	773
1	6983	577154.975904431231	774
1	6988	577704.132208228148	775
1	6997	578124.436521157659	776
1	7008	579142.374829715155	777
1	7017	579863.661504071243	778
1	7026	580456.145522464104	779
1	7033	580868.180456478186	780
1	7042	581325.062593957447	781
1	7055	582557.172646746077	782
1	7064	583219.84864901755	783
1	7071	583826.691104192324	784
1	7078	584224.196043564044	785
1	7087	584804.745469009541	786
1	7098	585826.09282331545	787
1	7105	586184.575057262593	788
1	7110	586654.004933405706	789
1	7127	588335.563684813716	790
1	7136	589082.138518011235	791
1	7141	589551.004829211198	792
1	7150	590211.180805508085	793
1	7159	591308.149546338283	794
1	7172	592099.70194213096	795
1	7179	592876.641412870995	796
1	7190	593327.821349864862	797
1	7199	594190.180383576117	798
1	7208	594821.199586987532	799
1	7215	595502.161022694818	800
1	7222	596123.71882209558	801
1	7235	597355.626404844261	802
1	7242	598078.489826805926	803
1	7249	598603.273334540464	804
1	7258	599288.967844471372	805
1	7267	599901.781742787026	806
1	7280	601420.029543712772	807
1	7289	601888.385937362946	808
1	7296	602456.346993567459	809
1	7303	603073.739055404476	810
1	7314	604249.442003108597	811

