version 2
run Pipelined_3Teachers-65-20190105-10:57:32-17492
attr configname Pipelined_3Teachers
attr datetime 20190105-10:57:32
attr experiment Pipelined_3Teachers
attr inifile ../simulations/omnetpp.ini
attr iterationvars "$0=\"uniform\""
attr iterationvarsf uniform-
attr measurement "$0=\"uniform\""
attr network PipelinedExamSession
attr processid 17492
attr repetition 65
attr replication #65
attr resultdir results
attr runnumber 65
attr seedset 65
param **.teachersNumber 3
param **.answerTimeDistribution "\"uniform\""
param **.minUniform 300
param **.maxUniform 900
param **.scaleLognormal 6.2854
param **.shapeLognormal 0.4724

vector 0 PipelinedExamSession examinationTime:vector ETV
attr source examFinished
vector 1 PipelinedExamSession studentID:vector ETV
attr source student
0	3172	260352.005216851852	1844.5276688319
0	3183	261078.662749612726	2011.5192419384
0	3190	261437.599124992288	1540.3135512024
0	3199	262540.442797495074	2083.6365322117
0	3212	263497.201843746028	2291.1766891368
0	3219	264058.310680277667	2016.8249114882
0	3226	264660.272589745022	1971.2986377999
0	3237	265379.973170952893	1882.7713272069
0	3244	266237.54286314363	2038.0660768133
0	3253	266806.304933270462	1854.0720124729
0	3264	267787.791717052482	2046.4178779162
0	3267	268107.517900876723	1675.1913639251
0	3280	269431.030607409798	2149.6587666683
0	3291	270253.746584896021	2125.6540210918
0	3302	271078.717387514213	2051.9139331765
0	3307	271460.755614750111	1850.5678586662
0	3318	272475.797404535139	2189.2456410918
0	3327	273336.679529724667	2257.9621422105
0	3334	273908.813148876676	2154.1288610548
0	3345	274463.927152007842	1935.3973707184
0	3356	275361.842205282325	2002.6399504859
0	3365	275825.276664225409	1771.4216038585
0	3370	276325.979157630379	1847.5778618362
0	3383	277328.15658487382	1966.3143795915
0	3388	277751.610644487689	1926.3339802623
0	3397	278462.13721800598	1970.0210885145
0	3406	278814.601666945989	1486.4450820722
0	3417	279892.596852779413	1733.3718584385
0	3424	280597.237475635509	1963.5404996574
0	3433	281339.357532514284	1993.439774774
0	3446	282126.507466239879	2031.3327992801
0	3455	282806.749699590752	1859.0194801334
0	3464	283580.545884976188	2116.553132236
0	3473	284477.627882827098	2351.1204165872
0	3482	285291.022102301965	2484.2724027112
0	3489	285763.084429688776	2182.5385447126
0	3498	286325.341073842744	1847.7131910156
0	3507	286857.447057170818	1566.4249548689
0	3518	287464.207620732511	1693.3170515578
0	3525	288187.433364288906	1841.3225035183
0	3534	288904.729435779179	1961.4339533262
0	3543	289509.431882947708	2045.2242622152
0	3546	289893.59413851055	1663.3179928176
0	3559	291278.154413960899	2234.6866363194
0	3568	291657.794134179156	1737.6400572248
0	3581	292973.61652180555	2387.9121892154
0	3586	293369.85666872936	1944.888134161
0	3597	294428.347021434481	2292.4873529468
0	3606	295194.260407425488	2220.6438856199
0	3615	295991.476457705746	2282.2765855584
0	3622	296587.2362921946	2070.9125049412
0	3631	297067.022805847253	1758.9928978588
0	3642	297870.365957636412	1673.4753097873
0	3649	298394.807225419234	1698.5980759375
0	3660	299451.734353741656	2045.9885579534
0	3667	299970.931343548025	1842.6112825982
0	3676	301087.639110256011	2292.8926419932
0	3687	301822.029881179358	2209.394418681
0	3694	302555.210495134841	2064.0767846256
0	3703	303153.383068554129	1819.0268397331
0	3714	303969.086140254538	1936.0642466694
0	3717	304270.037450082626	1452.3942202795
0	3730	305514.691195171352	1971.3004674297
0	3739	305891.481590364154	1498.8959230017
0	3748	306625.297953095312	1578.0336610973
0	3757	307214.525578636701	1561.1770310439
0	3766	308411.463516159008	1906.1816054396
0	3775	308744.269771920542	1769.2226041574
0	3786	309915.202976251046	2271.4068326633
0	3795	310589.589999709303	2153.8722003344
0	3802	311073.856924194867	1743.2011789642
0	3813	312014.248223695929	1966.7375702877
0	3824	312822.703913832108	2228.1121026725
0	3829	313133.191503491277	1793.3399828151
0	3838	313753.516151011015	1695.7090007141
0	3847	314522.124378103787	1699.4204642717
0	3856	315724.266023654515	2211.440252373
0	3869	316715.854356251682	2409.3942565843
0	3876	317430.180598469476	2371.8715196941
0	3885	318120.932931359882	2257.5840321835
0	3894	318907.591550610984	2191.7371943593
0	3903	319351.228638645286	1853.0768205877
0	3914	320528.953480487714	2388.5468849447
0	3921	321160.680631594757	2199.2618034594
0	3928	321770.842882851163	1978.5708838608
0	3937	322368.096368294234	1839.1428878065
0	3946	323046.185700874801	1836.0426267609
0	3955	323655.398397194247	1772.7511879988
0	3964	324426.722029689725	1803.0383453239
0	3973	325539.106313930849	2223.4667876735
0	3982	326059.565187385331	1849.3878473528
0	3991	327188.622665544997	2081.779336324
0	4000	327879.999646917011	2147.272256529
0	4013	328630.215203622381	2096.7914954759
0	4018	328930.429143598328	1604.2690324131
0	4029	329966.622055415089	1923.1874057092
0	4040	330814.924349030505	2184.7091454081
0	4045	331133.633020659934	1713.9303832781
0	4058	332341.784592485081	2191.5061505511
0	4063	332663.650289643582	1848.7259406131
0	4074	333658.728416310649	2014.3111327663
0	4081	334055.11559033769	1713.3309978526
0	4090	335282.475055335115	2277.7694522403
0	4103	336162.565441941869	2278.7331193686
0	4112	336997.922330070314	2436.6080943961
0	4121	337774.331241566715	2403.7608822808
0	4130	338549.230845551965	2386.6654036101
0	4139	339267.211032612276	2269.288702542
0	4148	340114.676114637431	2340.3448730707
0	4153	340529.763538716387	1980.5326931644
0	4166	341636.772816069451	2369.5617834572
0	4175	342388.184203533483	2273.5080888961
0	4180	342748.364317417172	1837.8783599474
0	4189	343582.301695179221	1945.5288791098
0	4198	344246.784293185947	1858.6000896525
0	4207	345206.879440555376	1983.4932559635
0	4216	346130.858368612853	2228.8858100306
0	4229	347027.226870926124	2230.2124740556
0	4236	347555.424787011025	2026.2724792119
0	4239	347889.499935088707	1602.8560494538
0	4254	348908.89896098527	1881.6720900591
0	4265	349524.479081248891	1621.2650417816
0	4274	350340.493925381478	1908.6667564698
0	4281	350869.358740188208	1953.7777287886
0	4290	351731.719019729671	2207.2399384808
0	4297	352366.091180127141	2025.5972547457
0	4310	353057.054185867336	1918.5618679505
0	4319	353918.853340158265	1935.6581877451
0	4324	354232.645761268239	1770.0363149866
0	4335	355447.845865041044	2390.7916791737
0	4344	356162.367492914226	2243.514152756
0	4351	356774.310401547726	2050.2155948896
0	4364	357870.16292880292	2283.2173671573
0	4369	358201.727397367386	2001.5135608614
0	4380	359130.823895847452	2085.372362053
0	4389	359893.610097561059	2023.4471687581
0	4398	360626.319494470981	2113.9541792683
0	4405	361073.533447645632	1869.0151272342
0	4416	362007.995714480085	1982.9711153638
0	4425	362959.238155279336	2325.0271161553
0	4432	363274.196659214822	2048.5349116847
0	4443	364277.311083348496	2155.3926817607
0	4450	364991.043191682575	1975.1951954328
0	4461	365930.495994631229	2050.023044413
0	4470	366369.937482895358	1804.5665731654
0	4477	366752.228545490681	1688.4418705478
0	4488	367587.238917918904	1652.2948114201
0	4495	368273.257558420329	1666.7547290213
0	4504	369068.532872898532	1893.6822244897
0	4515	369709.35022397901	1685.7544449158
0	4522	370171.237192768633	1341.754809022
0	4533	371176.1657055002	1866.6596014984
0	4540	371922.219591261848	2081.6243437584
0	4553	372756.225831666991	2117.3336373176
0	4558	373090.446738805652	1667.5552880857
0	4567	373966.132960421995	1854.9601668958
0	4576	374738.078020513088	1981.8521888461
0	4585	375282.973202085152	1651.003334485
0	4598	376783.605777332588	2377.7159219608
0	4603	377210.561561677634	2165.687661292
0	4612	377767.908617947279	1873.7447809428
0	4623	378724.003815930366	1940.3980385978
0	4630	379508.031949773461	1838.7986493297
0	4639	379982.101237122	1633.0171492416
0	4650	380816.083860816464	1744.127791794
0	4659	381433.970004692704	1887.8800656181
0	4666	381840.804457990483	1440.9981524572
0	4679	382602.20905635509	1542.6637935452
0	4684	383035.45405981134	1399.7644423507
0	4693	383372.125449171321	1175.354126282
0	4702	384211.160783283444	1608.9517269284
0	4713	385246.029208973081	1992.2974201385
0	4720	385813.420956954391	1919.4995895959
0	4733	386689.992417208882	2107.7542299405
0	4742	387441.04467672299	2063.4359279182
0	4749	387894.058510288628	1754.1012809146
0	4756	388472.26793440062	1782.2755171917
0	4769	389518.851695163207	2077.8070184402
0	4774	389851.057447912203	1858.1287017558
0	4783	390626.816906081545	1855.8628528845
0	4794	391483.081290358709	1964.2295951955
0	4805	392436.107375286552	2117.9742695298
0	4812	392931.639292789656	2064.9966771249
0	4823	393872.603275068137	2141.8239128776
0	4828	394230.640374496612	1794.5329992101
0	4837	395183.149979962069	2158.4134826437
0	4846	395834.155712323296	1961.5524372552
0	4855	396438.758489023928	1762.6417374238
0	4868	397598.05226675238	2166.4358362555
0	4873	398054.690179042551	1817.7121136338
0	4882	398660.771421063724	1663.3126387373
0	4895	399975.481756869736	2377.4294901174
0	4900	400448.446924611959	2049.5839306153
0	4909	401112.015566043589	1928.3259110525
0	4922	402441.308936616439	2465.8271797467
0	4927	402753.763347398523	2023.633161094
0	4936	403810.710433311794	2208.4593610838
0	4947	404737.060158932615	2295.7512223162
0	4958	405718.706654291634	2401.4787926339
0	4965	406188.469426939298	2064.6706516854
0	4974	406916.310021746937	1975.7495443337
0	4981	407498.128345515612	1779.421691224
0	4992	408471.672363812137	1955.3724913392
0	5003	409106.455620657686	2036.311665969
0	5012	409664.747013291377	1894.3052806891
0	5019	410248.35199909288	1666.6632176377
0	5026	410862.581064831499	1756.1254441738
0	5039	411809.599951515008	2144.8529382236
0	5048	412346.276342030648	1784.2032377142
0	5053	412717.073566792566	1631.1130799353
0	5062	413248.799073742736	1439.1991222277
0	5073	414611.514566140283	2265.2382241096
0	5080	415103.185651637647	1872.6304013282
0	5089	416012.3378215358	1997.9280746542
0	5098	417047.168985474889	2200.3232329153
0	5109	417473.269079765339	2001.7724440433
0	5120	418033.654775004868	1769.5367182139
0	5129	418819.094155076925	1676.7346610315
0	5134	419126.144567364861	1528.0196845997
0	5143	419573.342442512546	1539.6876675077
0	5148	420328.908150969107	1509.8139958922
0	5165	421689.078782731701	2166.3620281499
0	5170	422177.432801295106	1755.6808977854
0	5183	422929.113470530172	1863.7051933911
0	5188	423246.277563460206	1557.1987807285
0	5199	424194.638167787378	1635.4959314223
0	5208	424698.190641542931	1769.0771710128
0	5217	425597.529229754616	1810.4449626524
0	5226	426368.073534825852	2068.793868972
0	5233	426847.262203646859	1679.3024854269
0	5242	427880.642996728455	2121.1269131396
0	5251	428525.69830063734	1962.3267947696
0	5264	429747.041679360008	2301.7302425578
0	5273	430583.474031742698	2405.5183730554
0	5282	431384.142845962232	2364.4948894624
0	5291	431803.826755285299	2056.7850759253
0	5296	432480.637182528189	1897.1631507855
0	5309	433259.913557488507	1875.7707115263
0	5318	433923.918045312202	2120.0912900269
0	5323	434286.985370982474	1623.4898698982
0	5332	434845.42536749508	1585.5118100066
0	5345	436191.835994459725	2267.9179491475
0	5350	436573.307802714444	1987.2949901037
0	5359	437197.443440090902	1897.8591211606
0	5368	438132.194645935706	1940.358651476
0	5377	439173.358501028306	2155.4738996085
0	5388	440050.411986652798	2198.6628953833
0	5399	440759.032541932574	2099.3557585403
0	5404	441120.049433782733	1711.6518222727
0	5415	441823.493703687599	1740.7693644986
0	5424	442661.983656976408	1902.9511150438
0	5431	443049.019996589086	1657.8342373017
0	5442	444151.469060126727	2052.7159585152
0	5449	444768.220334406978	1903.0860418919
0	5458	445325.094424467569	1765.3709113598
0	5471	446351.261899340933	2073.7827009056
0	5476	446723.041203757783	1710.4737375397
0	5485	447511.569593707135	1638.2248772308
0	5498	448401.261402620037	2049.9995032791
0	5505	449095.54216023538	1913.1167087238
0	5516	449947.044041566585	2271.5759654995
0	5521	450404.89772963341	2003.6363270134
0	5534	451399.177549453487	2262.6679696608
0	5543	452175.910290889477	2228.8662493229
0	5552	452871.191608579864	2033.6555329151
0	5557	453171.366674825584	1772.1891253721
0	5566	454121.5391214006	1945.6288305111
0	5577	454939.996910747176	2068.8053021673
0	5588	455957.154878648033	2309.4926018268
0	5597	456799.352000746911	2444.2762271035
0	5604	457511.188704008272	2328.1040805392
0	5613	458297.090114001219	2339.9352353532
0	5620	458831.785387918387	2032.4333871715
0	5631	459715.669346088578	2090.0556581095
0	5638	460084.911804646288	1708.577486733
0	5647	461365.170978242567	2110.8603768982
0	5660	462307.44783324193	2295.3213417437
0	5669	463033.372111385723	2356.7833167035
0	5676	463813.706886302715	2343.5542613268
0	5683	464629.795902315562	2322.3480690736
0	5694	465242.468691850116	2209.0965804644
0	5701	465630.568227404763	1733.8150451425
0	5712	466622.02493618246	1876.5685769264
0	5715	466951.354510104319	1649.5959553868
0	5732	468481.506113056129	2323.6508020666
0	5739	469092.173923272675	2127.9784742743
0	5748	469649.005190329662	1977.9009497724
0	5755	470260.147137148342	1778.6410240922
0	5764	470842.967303283549	1614.0251473524
0	5775	471731.472953455559	1795.1777111739
0	5782	472241.210346948392	1837.8973512445
0	5793	473058.907659770957	1957.9389841296
0	5800	473419.954044884107	1618.6546268407
0	5809	474020.243249740487	1627.417040756
0	5822	475131.117585534267	1970.2799237799
0	5829	475883.568804664574	1900.1454016194
0	5840	476619.417799310796	2054.233953869
0	5849	477410.116339288689	2278.9987537544
0	5856	478227.58976477202	2275.8765659295
0	5867	479160.616155853532	2541.1983565427
0	5874	479650.526691600717	2240.410352312
0	5883	480529.391881451047	2246.5264274273
0	5890	481294.62664579045	2134.0104899369
0	5903	482265.542406449131	2286.5136321634
0	5912	483153.847532020918	2415.1691765059
0	5917	483665.404187282584	2268.324386375
0	5930	484631.639197189397	2366.0967907403
0	5939	485184.042688552326	2030.1951565314
0	5948	485921.343558328262	2151.1613034178
0	5957	486796.846030326596	2165.2068331372
0	5962	487231.352849956638	2047.3101614043
0	5971	487956.456775032019	2035.1132167038
0	5982	488929.906479455566	2133.060449129
0	5989	489611.988264089486	2023.6011730973
0	6000	490099.831463769114	1809.3546994496
0	6009	490832.772809453344	1666.9117008336
0	6020	491770.783288450947	1991.432718141
0	6027	492628.214062750375	2503.0572113581
0	6038	493297.814824199339	2352.2472880315
0	6043	493607.556891068851	1836.7736026179
0	6052	494275.016597332468	1616.2118447945
0	6061	494940.454151993652	1642.6393277943
0	6070	495863.582316180726	1837.6229699235
0	6083	497065.509862639045	2299.3773624301
0	6092	497823.176954733243	2267.7558400668
0	6101	498709.293038444629	2520.2619305346
0	6110	499559.216540632805	2493.7066779938
0	6117	500356.069852458349	2532.8928977251
0	6126	500866.423542145675	2157.130503701
0	6133	501430.14924251478	1870.932701882
0	6142	502226.305103860831	1851.7090920825
0	6151	502932.903891149944	1750.5448146723
0	6160	503447.73336932998	1743.8136002049
0	6171	504655.427179997822	2061.0904452391
0	6180	505224.879113864189	2005.0679951906
0	6191	506219.919090578369	2269.4753584452
0	6196	506738.929741876236	1932.1182738058
0	6207	507617.992304312102	2112.3566050082
0	6216	508191.458353679664	1971.5392631013
0	6227	509001.118846423961	2067.2767664306
0	6232	509480.876815225966	1838.5968298651
0	6241	510213.345489045643	1793.5089582112
0	6254	511034.076045686417	2032.9571992625
0	6261	511589.629087038376	1918.9456863329
0	6270	512240.753188915589	1792.6239587367
0	6281	513075.947759114244	2041.8717134278
0	6290	513874.351044371762	2233.5187122691
0	6297	514300.372850708701	1839.3480769359
0	6308	515063.466963171997	1987.5192040578
0	6315	515879.752640426197	2005.4015960544
0	6322	516324.004711909258	1887.6056210138
0	6331	517245.555571932384	2182.0886087604
0	6340	518060.234206449279	2118.5141129885
0	6349	518646.951714903155	1814.7467216011
0	6358	519227.10936879743	1507.05252802
0	6367	519714.909194782415	1529.0996112395
0	6376	520679.394609946796	1801.7543541268
0	6385	521347.467948496381	1831.2941442244
0	6396	522594.179241824935	2402.6580547448
0	6403	522913.59930136245	2009.4965054188
0	6414	524076.320267189334	2311.9831913151
0	6425	524951.687536854337	2293.01061281
0	6434	525576.795404870103	2183.8074416388
0	6441	526357.95883401301	2120.1204079203
0	6452	527235.195503057952	2283.5079662036
0	6459	527850.684605771716	2273.8892009016
0	6466	528358.85592517447	1999.8486951459
0	6479	529604.595946893136	2369.4004438352
0	6488	530452.252746652852	2567.8937220946
0	6497	531307.415054691996	2557.8423405066
0	6504	531802.965812617953	2198.3698657248
0	6515	532689.972604299004	2237.7198576462
0	6520	532996.951795415993	1689.536740724
0	6533	533807.659803517203	1978.1132515054
0	6540	534493.603460630442	1803.6308563314
0	6549	535430.598561046685	2284.7433130257
0	6556	535972.303626313846	2164.6438227966
0	6567	536709.204954374622	2023.5456189606
0	6578	537768.68127398197	2301.8605678808
0	6583	538141.973115596961	1906.6745830234
0	6592	538532.859513536137	1565.4644776136
0	6605	539616.565258428496	1847.8839844465
0	6610	540139.717879984569	1650.3622736782
0	6621	540844.56451283772	1964.8746892344
0	6628	541340.16153663401	1723.5962782055
0	6637	542059.275223827032	1823.6507787835
0	6648	542857.355052838144	1817.8349033464
0	6657	543401.67621499863	1746.8380745966
0	6666	544560.245875921143	2390.9270364325
0	6673	545136.430387990592	2230.6505536661
0	6684	546215.14454330322	2514.9891637266
0	6695	546910.627610329582	2331.8111245986
0	6702	547382.892922265499	1945.4444582574
0	6711	548254.02881149207	1943.5046833009
0	6722	549129.589765844911	2218.9621555153
0	6727	549448.146685911387	1813.9855334535
0	6740	550747.566985292404	2442.4818667118
0	6745	551118.089503236159	1988.4997373912
0	6754	552207.008437346711	2357.5757557992
0	6763	552988.338161213367	2240.771175921
0	6772	553800.731590809344	2160.4214551393
0	6785	554838.3635073435	2310.920880083
0	6790	555242.797425901561	1999.1443755571
0	6801	556025.879837572618	2058.5007178131
0	6812	556808.723887614949	1970.3603802714
0	6819	557373.724601045294	1976.532848971
0	6826	558134.217973658858	2087.1045514941
0	6839	558913.913208385973	2105.189320771
0	6848	559764.719287538945	2171.5335827786
0	6857	560452.382120769515	2093.5528624803
0	6864	561088.78332045865	2174.8701120727
0	6873	561823.014576220929	2058.295288682
0	6882	562494.243097398474	2041.860976629
0	6893	563245.717098098292	2047.8244566824
0	6902	563938.471907330721	2115.2787056286
0	6911	564816.467955708548	2218.9925367013
0	6920	565491.369511373385	2245.6524132751
0	6927	565895.308130420788	1956.8362230901
0	6936	566802.515256078958	1986.0473003704
0	6945	567602.736663445875	2111.3671520725
0	6956	568601.734066056132	2631.7790974863
0	6965	569354.612598242283	2490.6603215262
0	6972	569733.466494642243	2031.3502340578
0	6979	570137.72802650933	1535.9939604532
0	6990	571213.412482989997	1858.7998847477
0	6997	571702.142642391891	1811.4580445923
0	7006	572477.433548402086	1724.2956320755
0	7017	573241.626241430684	2004.393991828
0	7024	573838.527874974578	1833.1795436796
0	7037	574996.492957184135	2403.5678368527
0	7042	575512.957588909238	2209.0254471637
0	7051	575929.867582395717	1820.5893752631
0	7064	577343.40527155441	2346.9123143703
0	7069	578010.101064713716	2346.4511097875
0	7078	578507.024728506848	1949.9387891963
0	7087	579355.90848703873	2012.5032154843
0	7100	580482.624413212805	2302.930186037
0	7105	580786.665816977664	1708.466610359
0	7114	581653.533727582588	1866.4948571473
0	7127	582869.104653457223	2386.4802402444
0	7134	583544.832581933631	2305.4496578872
0	7143	584286.458350578366	2305.724383425
0	7152	585179.305649735077	2310.2009962779
0	7163	585970.874841045632	2311.1313007772
0	7172	586829.220997542187	2469.9697146658
0	7181	587394.471956603273	2167.6111594308
0	7190	588163.701744284525	2192.8269032389
0	7195	588464.607581449717	1635.3865839075
0	7204	589298.190407361879	1903.7184507586
0	7215	590012.701255409091	1848.9995111246
0	7226	590903.715356625661	1977.8427487705
0	7231	591508.10145749715	1997.8692255914
0	7244	592416.175729176075	2344.5254491176
0	7251	593028.967626253188	2125.2522696275
0	7262	593849.344298383266	2134.2836456839
0	7269	594417.93321515438	2001.7574859783
0	7278	595183.812335925222	2072.2638246138
0	7287	596046.538022439972	2197.1937240567
0	7298	596911.21592642744	2353.9384942967
0	7307	597741.836664732592	2456.6219658125
0	7316	598584.926603268878	2425.3646220546
0	7321	598970.491435797931	2059.2755093705
0	7332	599782.90655482565	2041.0698900931
0	7339	600577.917698957072	1992.9910956882
0	7350	601449.290837254422	2058.4066091571
0	7361	602220.698122121441	1964.901276771
0	7368	602689.633368048864	1654.9806267489
0	7375	603034.817691519904	1513.7518838514
0	7384	604259.514873242054	2038.8167511206
1	3172	260352.005216851852	351
1	3183	261078.662749612726	352
1	3190	261437.599124992288	353
1	3199	262540.442797495074	354
1	3212	263497.201843746028	355
1	3219	264058.310680277667	356
1	3226	264660.272589745022	357
1	3237	265379.973170952893	358
1	3244	266237.54286314363	359
1	3253	266806.304933270462	360
1	3264	267787.791717052482	361
1	3267	268107.517900876723	362
1	3280	269431.030607409798	363
1	3291	270253.746584896021	364
1	3302	271078.717387514213	365
1	3307	271460.755614750111	366
1	3318	272475.797404535139	367
1	3327	273336.679529724667	368
1	3334	273908.813148876676	369
1	3345	274463.927152007842	370
1	3356	275361.842205282325	371
1	3365	275825.276664225409	372
1	3370	276325.979157630379	373
1	3383	277328.15658487382	374
1	3388	277751.610644487689	375
1	3397	278462.13721800598	376
1	3406	278814.601666945989	377
1	3417	279892.596852779413	378
1	3424	280597.237475635509	379
1	3433	281339.357532514284	380
1	3446	282126.507466239879	381
1	3455	282806.749699590752	382
1	3464	283580.545884976188	383
1	3473	284477.627882827098	384
1	3482	285291.022102301965	385
1	3489	285763.084429688776	386
1	3498	286325.341073842744	387
1	3507	286857.447057170818	388
1	3518	287464.207620732511	389
1	3525	288187.433364288906	390
1	3534	288904.729435779179	391
1	3543	289509.431882947708	392
1	3546	289893.59413851055	393
1	3559	291278.154413960899	394
1	3568	291657.794134179156	395
1	3581	292973.61652180555	396
1	3586	293369.85666872936	397
1	3597	294428.347021434481	398
1	3606	295194.260407425488	399
1	3615	295991.476457705746	400
1	3622	296587.2362921946	401
1	3631	297067.022805847253	402
1	3642	297870.365957636412	403
1	3649	298394.807225419234	404
1	3660	299451.734353741656	405
1	3667	299970.931343548025	406
1	3676	301087.639110256011	407
1	3687	301822.029881179358	408
1	3694	302555.210495134841	409
1	3703	303153.383068554129	410
1	3714	303969.086140254538	411
1	3717	304270.037450082626	412
1	3730	305514.691195171352	413
1	3739	305891.481590364154	414
1	3748	306625.297953095312	415
1	3757	307214.525578636701	416
1	3766	308411.463516159008	417
1	3775	308744.269771920542	418
1	3786	309915.202976251046	419
1	3795	310589.589999709303	420
1	3802	311073.856924194867	421
1	3813	312014.248223695929	422
1	3824	312822.703913832108	423
1	3829	313133.191503491277	424
1	3838	313753.516151011015	425
1	3847	314522.124378103787	426
1	3856	315724.266023654515	427
1	3869	316715.854356251682	428
1	3876	317430.180598469476	429
1	3885	318120.932931359882	430
1	3894	318907.591550610984	431
1	3903	319351.228638645286	432
1	3914	320528.953480487714	433
1	3921	321160.680631594757	434
1	3928	321770.842882851163	435
1	3937	322368.096368294234	436
1	3946	323046.185700874801	437
1	3955	323655.398397194247	438
1	3964	324426.722029689725	439
1	3973	325539.106313930849	440
1	3982	326059.565187385331	441
1	3991	327188.622665544997	442
1	4000	327879.999646917011	443
1	4013	328630.215203622381	444
1	4018	328930.429143598328	445
1	4029	329966.622055415089	446
1	4040	330814.924349030505	447
1	4045	331133.633020659934	448
1	4058	332341.784592485081	449
1	4063	332663.650289643582	450
1	4074	333658.728416310649	451
1	4081	334055.11559033769	452
1	4090	335282.475055335115	453
1	4103	336162.565441941869	454
1	4112	336997.922330070314	455
1	4121	337774.331241566715	456
1	4130	338549.230845551965	457
1	4139	339267.211032612276	458
1	4148	340114.676114637431	459
1	4153	340529.763538716387	460
1	4166	341636.772816069451	461
1	4175	342388.184203533483	462
1	4180	342748.364317417172	463
1	4189	343582.301695179221	464
1	4198	344246.784293185947	465
1	4207	345206.879440555376	466
1	4216	346130.858368612853	467
1	4229	347027.226870926124	468
1	4236	347555.424787011025	469
1	4239	347889.499935088707	470
1	4254	348908.89896098527	471
1	4265	349524.479081248891	472
1	4274	350340.493925381478	473
1	4281	350869.358740188208	474
1	4290	351731.719019729671	475
1	4297	352366.091180127141	476
1	4310	353057.054185867336	477
1	4319	353918.853340158265	478
1	4324	354232.645761268239	479
1	4335	355447.845865041044	480
1	4344	356162.367492914226	481
1	4351	356774.310401547726	482
1	4364	357870.16292880292	483
1	4369	358201.727397367386	484
1	4380	359130.823895847452	485
1	4389	359893.610097561059	486
1	4398	360626.319494470981	487
1	4405	361073.533447645632	488
1	4416	362007.995714480085	489
1	4425	362959.238155279336	490
1	4432	363274.196659214822	491
1	4443	364277.311083348496	492
1	4450	364991.043191682575	493
1	4461	365930.495994631229	494
1	4470	366369.937482895358	495
1	4477	366752.228545490681	496
1	4488	367587.238917918904	497
1	4495	368273.257558420329	498
1	4504	369068.532872898532	499
1	4515	369709.35022397901	500
1	4522	370171.237192768633	501
1	4533	371176.1657055002	502
1	4540	371922.219591261848	503
1	4553	372756.225831666991	504
1	4558	373090.446738805652	505
1	4567	373966.132960421995	506
1	4576	374738.078020513088	507
1	4585	375282.973202085152	508
1	4598	376783.605777332588	509
1	4603	377210.561561677634	510
1	4612	377767.908617947279	511
1	4623	378724.003815930366	512
1	4630	379508.031949773461	513
1	4639	379982.101237122	514
1	4650	380816.083860816464	515
1	4659	381433.970004692704	516
1	4666	381840.804457990483	517
1	4679	382602.20905635509	518
1	4684	383035.45405981134	519
1	4693	383372.125449171321	520
1	4702	384211.160783283444	521
1	4713	385246.029208973081	522
1	4720	385813.420956954391	523
1	4733	386689.992417208882	524
1	4742	387441.04467672299	525
1	4749	387894.058510288628	526
1	4756	388472.26793440062	527
1	4769	389518.851695163207	528
1	4774	389851.057447912203	529
1	4783	390626.816906081545	530
1	4794	391483.081290358709	531
1	4805	392436.107375286552	532
1	4812	392931.639292789656	533
1	4823	393872.603275068137	534
1	4828	394230.640374496612	535
1	4837	395183.149979962069	536
1	4846	395834.155712323296	537
1	4855	396438.758489023928	538
1	4868	397598.05226675238	539
1	4873	398054.690179042551	540
1	4882	398660.771421063724	541
1	4895	399975.481756869736	542
1	4900	400448.446924611959	543
1	4909	401112.015566043589	544
1	4922	402441.308936616439	545
1	4927	402753.763347398523	546
1	4936	403810.710433311794	547
1	4947	404737.060158932615	548
1	4958	405718.706654291634	549
1	4965	406188.469426939298	550
1	4974	406916.310021746937	551
1	4981	407498.128345515612	552
1	4992	408471.672363812137	553
1	5003	409106.455620657686	554
1	5012	409664.747013291377	555
1	5019	410248.35199909288	556
1	5026	410862.581064831499	557
1	5039	411809.599951515008	558
1	5048	412346.276342030648	559
1	5053	412717.073566792566	560
1	5062	413248.799073742736	561
1	5073	414611.514566140283	562
1	5080	415103.185651637647	563
1	5089	416012.3378215358	564
1	5098	417047.168985474889	565
1	5109	417473.269079765339	566
1	5120	418033.654775004868	567
1	5129	418819.094155076925	568
1	5134	419126.144567364861	569
1	5143	419573.342442512546	570
1	5148	420328.908150969107	571
1	5165	421689.078782731701	572
1	5170	422177.432801295106	573
1	5183	422929.113470530172	574
1	5188	423246.277563460206	575
1	5199	424194.638167787378	576
1	5208	424698.190641542931	577
1	5217	425597.529229754616	578
1	5226	426368.073534825852	579
1	5233	426847.262203646859	580
1	5242	427880.642996728455	581
1	5251	428525.69830063734	582
1	5264	429747.041679360008	583
1	5273	430583.474031742698	584
1	5282	431384.142845962232	585
1	5291	431803.826755285299	586
1	5296	432480.637182528189	587
1	5309	433259.913557488507	588
1	5318	433923.918045312202	589
1	5323	434286.985370982474	590
1	5332	434845.42536749508	591
1	5345	436191.835994459725	592
1	5350	436573.307802714444	593
1	5359	437197.443440090902	594
1	5368	438132.194645935706	595
1	5377	439173.358501028306	596
1	5388	440050.411986652798	597
1	5399	440759.032541932574	598
1	5404	441120.049433782733	599
1	5415	441823.493703687599	600
1	5424	442661.983656976408	601
1	5431	443049.019996589086	602
1	5442	444151.469060126727	603
1	5449	444768.220334406978	604
1	5458	445325.094424467569	605
1	5471	446351.261899340933	606
1	5476	446723.041203757783	607
1	5485	447511.569593707135	608
1	5498	448401.261402620037	609
1	5505	449095.54216023538	610
1	5516	449947.044041566585	611
1	5521	450404.89772963341	612
1	5534	451399.177549453487	613
1	5543	452175.910290889477	614
1	5552	452871.191608579864	615
1	5557	453171.366674825584	616
1	5566	454121.5391214006	617
1	5577	454939.996910747176	618
1	5588	455957.154878648033	619
1	5597	456799.352000746911	620
1	5604	457511.188704008272	621
1	5613	458297.090114001219	622
1	5620	458831.785387918387	623
1	5631	459715.669346088578	624
1	5638	460084.911804646288	625
1	5647	461365.170978242567	626
1	5660	462307.44783324193	627
1	5669	463033.372111385723	628
1	5676	463813.706886302715	629
1	5683	464629.795902315562	630
1	5694	465242.468691850116	631
1	5701	465630.568227404763	632
1	5712	466622.02493618246	633
1	5715	466951.354510104319	634
1	5732	468481.506113056129	635
1	5739	469092.173923272675	636
1	5748	469649.005190329662	637
1	5755	470260.147137148342	638
1	5764	470842.967303283549	639
1	5775	471731.472953455559	640
1	5782	472241.210346948392	641
1	5793	473058.907659770957	642
1	5800	473419.954044884107	643
1	5809	474020.243249740487	644
1	5822	475131.117585534267	645
1	5829	475883.568804664574	646
1	5840	476619.417799310796	647
1	5849	477410.116339288689	648
1	5856	478227.58976477202	649
1	5867	479160.616155853532	650
1	5874	479650.526691600717	651
1	5883	480529.391881451047	652
1	5890	481294.62664579045	653
1	5903	482265.542406449131	654
1	5912	483153.847532020918	655
1	5917	483665.404187282584	656
1	5930	484631.639197189397	657
1	5939	485184.042688552326	658
1	5948	485921.343558328262	659
1	5957	486796.846030326596	660
1	5962	487231.352849956638	661
1	5971	487956.456775032019	662
1	5982	488929.906479455566	663
1	5989	489611.988264089486	664
1	6000	490099.831463769114	665
1	6009	490832.772809453344	666
1	6020	491770.783288450947	667
1	6027	492628.214062750375	668
1	6038	493297.814824199339	669
1	6043	493607.556891068851	670
1	6052	494275.016597332468	671
1	6061	494940.454151993652	672
1	6070	495863.582316180726	673
1	6083	497065.509862639045	674
1	6092	497823.176954733243	675
1	6101	498709.293038444629	676
1	6110	499559.216540632805	677
1	6117	500356.069852458349	678
1	6126	500866.423542145675	679
1	6133	501430.14924251478	680
1	6142	502226.305103860831	681
1	6151	502932.903891149944	682
1	6160	503447.73336932998	683
1	6171	504655.427179997822	684
1	6180	505224.879113864189	685
1	6191	506219.919090578369	686
1	6196	506738.929741876236	687
1	6207	507617.992304312102	688
1	6216	508191.458353679664	689
1	6227	509001.118846423961	690
1	6232	509480.876815225966	691
1	6241	510213.345489045643	692
1	6254	511034.076045686417	693
1	6261	511589.629087038376	694
1	6270	512240.753188915589	695
1	6281	513075.947759114244	696
1	6290	513874.351044371762	697
1	6297	514300.372850708701	698
1	6308	515063.466963171997	699
1	6315	515879.752640426197	700
1	6322	516324.004711909258	701
1	6331	517245.555571932384	702
1	6340	518060.234206449279	703
1	6349	518646.951714903155	704
1	6358	519227.10936879743	705
1	6367	519714.909194782415	706
1	6376	520679.394609946796	707
1	6385	521347.467948496381	708
1	6396	522594.179241824935	709
1	6403	522913.59930136245	710
1	6414	524076.320267189334	711
1	6425	524951.687536854337	712
1	6434	525576.795404870103	713
1	6441	526357.95883401301	714
1	6452	527235.195503057952	715
1	6459	527850.684605771716	716
1	6466	528358.85592517447	717
1	6479	529604.595946893136	718
1	6488	530452.252746652852	719
1	6497	531307.415054691996	720
1	6504	531802.965812617953	721
1	6515	532689.972604299004	722
1	6520	532996.951795415993	723
1	6533	533807.659803517203	724
1	6540	534493.603460630442	725
1	6549	535430.598561046685	726
1	6556	535972.303626313846	727
1	6567	536709.204954374622	728
1	6578	537768.68127398197	729
1	6583	538141.973115596961	730
1	6592	538532.859513536137	731
1	6605	539616.565258428496	732
1	6610	540139.717879984569	733
1	6621	540844.56451283772	734
1	6628	541340.16153663401	735
1	6637	542059.275223827032	736
1	6648	542857.355052838144	737
1	6657	543401.67621499863	738
1	6666	544560.245875921143	739
1	6673	545136.430387990592	740
1	6684	546215.14454330322	741
1	6695	546910.627610329582	742
1	6702	547382.892922265499	743
1	6711	548254.02881149207	744
1	6722	549129.589765844911	745
1	6727	549448.146685911387	746
1	6740	550747.566985292404	747
1	6745	551118.089503236159	748
1	6754	552207.008437346711	749
1	6763	552988.338161213367	750
1	6772	553800.731590809344	751
1	6785	554838.3635073435	752
1	6790	555242.797425901561	753
1	6801	556025.879837572618	754
1	6812	556808.723887614949	755
1	6819	557373.724601045294	756
1	6826	558134.217973658858	757
1	6839	558913.913208385973	758
1	6848	559764.719287538945	759
1	6857	560452.382120769515	760
1	6864	561088.78332045865	761
1	6873	561823.014576220929	762
1	6882	562494.243097398474	763
1	6893	563245.717098098292	764
1	6902	563938.471907330721	765
1	6911	564816.467955708548	766
1	6920	565491.369511373385	767
1	6927	565895.308130420788	768
1	6936	566802.515256078958	769
1	6945	567602.736663445875	770
1	6956	568601.734066056132	771
1	6965	569354.612598242283	772
1	6972	569733.466494642243	773
1	6979	570137.72802650933	774
1	6990	571213.412482989997	775
1	6997	571702.142642391891	776
1	7006	572477.433548402086	777
1	7017	573241.626241430684	778
1	7024	573838.527874974578	779
1	7037	574996.492957184135	780
1	7042	575512.957588909238	781
1	7051	575929.867582395717	782
1	7064	577343.40527155441	783
1	7069	578010.101064713716	784
1	7078	578507.024728506848	785
1	7087	579355.90848703873	786
1	7100	580482.624413212805	787
1	7105	580786.665816977664	788
1	7114	581653.533727582588	789
1	7127	582869.104653457223	790
1	7134	583544.832581933631	791
1	7143	584286.458350578366	792
1	7152	585179.305649735077	793
1	7163	585970.874841045632	794
1	7172	586829.220997542187	795
1	7181	587394.471956603273	796
1	7190	588163.701744284525	797
1	7195	588464.607581449717	798
1	7204	589298.190407361879	799
1	7215	590012.701255409091	800
1	7226	590903.715356625661	801
1	7231	591508.10145749715	802
1	7244	592416.175729176075	803
1	7251	593028.967626253188	804
1	7262	593849.344298383266	805
1	7269	594417.93321515438	806
1	7278	595183.812335925222	807
1	7287	596046.538022439972	808
1	7298	596911.21592642744	809
1	7307	597741.836664732592	810
1	7316	598584.926603268878	811
1	7321	598970.491435797931	812
1	7332	599782.90655482565	813
1	7339	600577.917698957072	814
1	7350	601449.290837254422	815
1	7361	602220.698122121441	816
1	7368	602689.633368048864	817
1	7375	603034.817691519904	818
1	7384	604259.514873242054	819

