version 2
run Pipelined_3Teachers-30-20190105-10:57:24-11352
attr configname Pipelined_3Teachers
attr datetime 20190105-10:57:24
attr experiment Pipelined_3Teachers
attr inifile ../simulations/omnetpp.ini
attr iterationvars "$0=\"uniform\""
attr iterationvarsf uniform-
attr measurement "$0=\"uniform\""
attr network PipelinedExamSession
attr processid 11352
attr repetition 30
attr replication #30
attr resultdir results
attr runnumber 30
attr seedset 30
param **.teachersNumber 3
param **.answerTimeDistribution "\"uniform\""
param **.minUniform 300
param **.maxUniform 900
param **.scaleLognormal 6.2854
param **.shapeLognormal 0.4724

vector 0 PipelinedExamSession examinationTime:vector ETV
attr source examFinished
vector 1 PipelinedExamSession studentID:vector ETV
attr source student
0	3190	260355.728116817798	2215.9552240279
0	3203	261235.071690101203	2205.0819973927
0	3208	261558.909008000073	1729.457463976
0	3217	262250.520662823719	1655.4302872159
0	3228	263236.37976190078	2001.3080717996
0	3239	264148.417801363421	2202.9295954853
0	3244	264472.678994340849	1630.5313660763
0	3255	265574.449353665141	2272.3358484451
0	3264	266269.429431762574	2121.0116303992
0	3271	266825.250715808971	1834.9703673273
0	3280	267231.309522874682	1432.8253650572
0	3289	267663.623859733371	1248.7837694585
0	3300	268304.575566016166	1391.866892064
0	3309	269310.976774664625	1921.1400745902
0	3318	269890.641484223336	1993.6641003471
0	3327	270629.319658409834	2059.5038382802
0	3338	271599.779436970158	2241.9685518835
0	3347	272494.845897657825	2267.4144250341
0	3352	273027.147077070577	2207.3226491455
0	3361	273883.712375583156	2283.932938613
0	3370	274559.33604449968	2064.4901468419
0	3379	275030.456894869013	1744.8310093023
0	3388	275720.919051021366	1726.469145203
0	3401	276796.52894977483	1953.9733984508
0	3408	277562.30529709722	2061.9274426717
0	3417	278052.203898970066	1875.4415981937
0	3424	278382.184674264891	1585.6557244901
0	3433	279010.076191183208	1375.4975773394
0	3442	279792.813955061166	1551.3139343821
0	3451	280422.231598338141	1584.956141375
0	3464	281672.070874180673	2279.6341171023
0	3471	282406.062765140115	2375.5191083997
0	3478	283226.614244794501	2363.5641829111
0	3491	284211.458756960957	2539.3878827803
0	3496	284587.001509079738	2058.5652345791
0	3505	285244.801490474521	1923.2855865732
0	3514	285940.939102275326	1729.4803453144
0	3525	286818.197656888544	1983.4617852699
0	3536	287511.69623513709	2113.5476309806
0	3545	288277.62365816164	2131.4470825251
0	3552	288789.55045226033	1946.0651736706
0	3559	289623.103731824115	2111.407496687
0	3572	290534.985505789548	2257.3618476279
0	3581	291365.401910338581	2351.9403357524
0	3586	291784.181433543593	1936.0940978397
0	3597	292716.475498583198	2181.4899927936
0	3606	293524.249110510603	2158.847200172
0	3615	294384.801448881656	2127.2486095782
0	3622	295094.482722552523	2006.0107293539
0	3635	296069.642118690566	2350.1907783095
0	3644	296900.184827344523	2293.946080422
0	3649	297207.789791654826	1880.4708923679
0	3658	297754.428005637632	1684.7858869471
0	3667	298841.583535820276	1941.3987084758
0	3680	300066.152886673838	2479.7880832572
0	3685	300425.905947899476	2077.8511702549
0	3696	301506.652486464039	2305.4202036001
0	3703	302299.762465618581	2233.6095789447
0	3716	303328.734149923578	2421.1656407453
0	3721	303888.84317795749	2147.4522422533
0	3734	304779.514163872257	2236.9189708494
0	3739	305398.396344250098	2069.6621943265
0	3750	306226.966504287005	2304.3351480737
0	3757	306756.654616026238	1977.140452154
0	3766	307806.079997168884	2181.8000441417
0	3779	308717.116140760512	2356.9634044077
0	3784	309116.653125872866	2010.2989191189
0	3793	309873.084674030573	1904.1317168623
0	3802	310799.054233962701	2081.9380932022
0	3813	311234.98484180312	1710.5152904056
0	3822	311987.594927754284	1631.2438862398
0	3831	312600.221643922881	1676.3589866459
0	3840	313393.008228438006	2043.8445101492
0	3847	313848.451335215972	1843.5924415011
0	3860	315026.723661879108	2337.2340112925
0	3867	315668.681028485329	2226.9482400734
0	3878	316430.219480535046	2289.0856125858
0	3883	316964.307420048893	1937.5837581698
0	3892	317906.608973164142	2153.6736716051
0	3903	318641.831126762584	2211.6116462275
0	3912	319427.818192401931	2229.785678722
0	3919	320006.124159134955	1919.3129749037
0	3928	320540.994704235376	1616.1462530494
0	3939	321432.553875586048	1762.7388132736
0	3950	322141.280041448803	1947.6215542294
0	3955	322654.003275884346	2027.547591459
0	3966	323718.360263016106	2272.9267511051
0	3975	324436.284326948257	2295.0042854995
0	3982	325036.222668830337	2033.0165907741
0	3993	326007.111282320725	2132.9760956112
0	4000	326382.982345065134	1788.4207454044
0	4009	327482.764298608559	2081.2204679009
0	4018	328196.656766580449	1910.9698756132
0	4023	328551.84878697622	1376.7384535633
0	4040	329979.29471419196	2060.1298018824
0	4047	330810.976714314924	2218.3901213575
0	4056	331465.723227337034	2140.7440426759
0	4063	332063.185718189957	2083.891003998
0	4072	333084.818256553295	2250.7150654681
0	4081	333751.484844787078	2159.085927112
0	4090	334298.386686528133	1811.7008197121
0	4101	335075.809854548456	1743.8483838458
0	4110	336095.922172721508	2253.4793159924
0	4117	336872.091736178878	2205.0839021802
0	4130	337939.713036222417	2427.5187791325
0	4137	338377.28010239083	2031.086282758
0	4146	339274.10936923701	2102.8507742565
0	4153	339593.203353183378	1653.490316961
0	4166	341073.289175843854	2446.9025672413
0	4173	341585.921914083917	2175.7122538984
0	4182	342304.403218394179	2052.5102185551
0	4189	342863.346029352431	1790.0568535086
0	4202	343911.937587428872	1953.4985168371
0	4207	344276.489488128607	1726.9309792668
0	4220	345322.32981375422	2280.5661322083
0	4225	345741.852909559418	1829.9153221305
0	4234	346461.559222312678	1995.0759285595
0	4247	347732.27471080612	2409.9448970519
0	4254	348457.234780490432	2268.8865270931
0	4261	348779.296667967025	1919.5671629626
0	4272	349985.094724455882	2252.8200136498
0	4283	350830.311230057884	2306.0586735606
0	4288	351147.50533034097	1893.1686707307
0	4297	351869.100067997384	1840.0222271215
0	4306	352581.674657017027	1751.3634269591
0	4317	353829.522400349413	2205.6922644842
0	4328	354649.061100650613	2220.2175862156
0	4333	355235.494065284763	2019.4837593008
0	4344	356055.128974188153	2171.5829193592
0	4351	356793.912250595201	2144.8511499446
0	4360	357553.737118514289	2010.0715686567
0	4373	358364.87142448317	2088.3300581016
0	4382	358993.727632798289	1914.8667247966
0	4387	359330.002244655077	1745.0004958548
0	4396	359899.645918747444	1534.7744942643
0	4409	361208.799059735645	2215.0714269374
0	4416	362042.328204168041	2332.0475338027
0	4423	362449.182613939081	2003.7421214394
0	4436	363374.667141493444	2165.8680817578
0	4441	363920.144022675265	1845.2204750385
0	4454	364721.938574407284	2127.1971272305
0	4463	365491.658180253615	2116.9910387602
0	4468	365868.106249021401	1751.3726319652
0	4477	366677.835755981539	1955.8971815743
0	4486	367404.836381552776	1913.1782012992
0	4495	368100.919185066631	1901.7510065809
0	4508	369446.502923453262	2527.4438991677
0	4517	370245.487419236487	2450.4146233667
0	4526	370980.585280666163	2361.889267154
0	4533	371738.398554688355	2291.8956312351
0	4540	372123.33307662051	1877.845657384
0	4549	372685.287265945261	1704.7019852791
0	4560	373681.576335383615	1844.3372445647
0	4571	374605.41111901406	2143.7386351638
0	4576	375005.186644289678	2095.9150255658
0	4587	375936.5959238727	2141.1802792456
0	4598	376783.72204243209	2178.310923418
0	4607	377329.179234942456	1854.247942334
0	4614	377793.989958940109	1768.3132961858
0	4617	378186.993592232501	1403.2715498004
0	4634	379671.69724842537	2342.5180134829
0	4643	380309.869815688616	2080.744222831
0	4652	381141.684183524957	2051.7919787206
0	4659	381566.5918876883	1894.8946392629
0	4666	381982.024593930727	1672.1547782421
0	4675	382871.265670051834	1729.5814865269
0	4686	384004.809994669667	2329.5748518314
0	4693	384475.934232585167	1983.4870727733
0	4702	385261.850694241038	1920.3183350153
0	4713	386354.190660500935	2197.3896226846
0	4722	386891.205061040854	1895.145648066
0	4729	387491.492633800989	1637.75176825
0	4738	388507.311082631385	2017.4428160302
0	4747	389128.959780419281	1777.1498589311
0	4758	390046.804638532957	1999.8507587705
0	4767	390922.615895792878	2013.0983674899
0	4776	391481.43152100969	1951.715472294
0	4785	392093.232986563852	1900.7906733546
0	4794	392618.591966293788	1627.899348177
0	4801	393478.463782696089	1964.3641437404
0	4812	394433.339417399874	2141.7808639817
0	4819	394879.609052790364	1802.5538820773
0	4832	396186.041183117813	2515.132950386
0	4841	396978.750703157893	2447.4593822379
0	4846	397348.053366970307	2020.22604472
0	4859	398143.966802721879	1957.9256196041
0	4868	398941.935558524019	1963.1848553661
0	4875	399618.845340795851	2058.6429717019
0	4886	400422.976095881349	2279.0092931595
0	4893	401090.02896440219	2148.0934058782
0	4904	401969.039942091367	2133.9582775254
0	4913	402803.144811792335	2380.168715911
0	4922	403445.261888299173	2240.7030018512
0	4927	404073.147554090282	2104.1076119989
0	4940	405041.400177776849	2238.2553659845
0	4947	405710.045691160521	2264.7838028613
0	4954	406211.333412956482	2014.7387697827
0	4963	406973.191883834115	1931.7917060573
0	4972	407844.500894984266	1941.9965978712
0	4985	408871.960887685453	2072.333141556
0	4992	409575.775017449667	2048.9929537755
0	4999	410136.601484846358	2063.4461366571
0	5008	410820.032939733973	1948.0720520485
0	5019	411747.430624812878	1988.3249121252
0	5026	412177.875784132665	1692.9953570478
0	5039	413036.050937511062	1901.5169211198
0	5044	413347.367649665138	1579.9741571769
0	5057	414355.552275572007	2011.3005177118
0	5066	415105.55354263637	2069.5026051253
0	5071	415702.285749698093	2036.9477121625
0	5080	416451.13114980053	2095.5788742285
0	5093	417279.435896454414	2173.882353818
0	5100	418028.152218181675	2190.380950598
0	5111	418953.399567492342	2246.1664976086
0	5116	419318.04798035886	2038.6120839044
0	5125	420054.223996494001	1947.1882217098
0	5134	420723.772046109698	1770.3724786174
0	5147	421848.157043242864	2343.5680871364
0	5152	422199.464323930479	1795.8522368688
0	5161	422919.766986463256	1717.2406137921
0	5170	423808.662271220274	1960.5052279774
0	5183	424930.446714023166	2327.5677451864
0	5192	425782.51455472786	2443.6304011848
0	5201	426345.793175138571	2262.7437856514
0	5208	426985.978624317833	2055.5319102947
0	5219	427716.947516659313	1934.4329619315
0	5224	428170.085454778784	1824.2922796402
0	5235	429019.779118616173	1995.0096046552
0	5242	429695.726697240064	1978.7791805808
0	5251	430179.982883529776	1671.3438490871
0	5262	431420.124137168788	2206.0081061907
0	5271	432149.779123161026	2212.3050615191
0	5280	432686.068688426205	2084.0528588276
0	5287	433481.147329788692	2058.8240671903
0	5298	434331.817072816231	2029.1299138684
0	5307	435114.625326823481	1982.4959775433
0	5314	435524.657155992501	1887.5451383181
0	5323	436186.162094492502	1706.0686200857
0	5332	437206.14415160384	1969.6862305049
0	5341	437947.070612479038	1912.0593840256
0	5350	438608.071173168755	2103.1972747296
0	5363	439720.093087479508	2426.2165637221
0	5368	440608.621527627146	2495.9069207311
0	5377	441071.653173957056	2158.1340481527
0	5390	441963.453136151693	2243.3600486722
0	5399	442826.148133585266	2207.8022985253
0	5404	443570.180378202385	2259.947532462
0	5417	444097.664298908822	2134.2111627571
0	5424	444902.585894381665	2076.4377607964
0	5435	445814.222091436423	2173.8368914928
0	5440	446444.651674479283	2346.9873755705
0	5453	447480.581531021781	2539.1275030095
0	5462	448109.510338073633	2295.2882466372
0	5469	448463.54700112719	1765.5777624808
0	5476	448816.416129609606	1335.8345985878
0	5485	449614.109382592178	1504.5990445185
0	5494	450323.263134900517	1796.500892099
0	5507	451644.326820317693	2481.9194998126
0	5514	452145.42137738321	2235.0962129887
0	5521	453096.618792973496	2331.101535866
0	5534	453768.591813929417	2124.2649936117
0	5543	454496.975038759448	2102.2050008643
0	5550	454870.864535775073	1633.7773205247
0	5561	455886.927937204056	2118.3361232746
0	5570	456761.729283258357	2264.7542444989
0	5579	457392.190636647903	2340.3442096431
0	5588	458187.642738735341	2300.7148015313
0	5595	458794.480400858485	2032.7511176001
0	5602	459348.269148683214	1956.0785120353
0	5611	460582.734208088406	2395.0914693531
0	5624	461508.626601006874	2456.2618370634
0	5631	462003.100766334721	2101.4564246871
0	5638	462324.18707446199	1530.1781754009
0	5647	463344.013649923765	1835.3870489169
0	5656	463705.241948179939	1544.925538497
0	5669	464473.437753086948	1739.8687913083
0	5674	464825.818524090612	1402.9570654035
0	5685	465728.046333650165	1808.3437903784
0	5692	466401.94316357378	1928.5054104868
0	5701	467638.931965827981	2426.4687737916
0	5710	468127.184470603281	2141.9088339899
0	5719	468871.049012616316	2029.4241392054
0	5730	469838.914313307071	2103.7877366412
0	5737	470408.499020850325	1837.5632904936
0	5746	471221.774562075774	2059.7684943583
0	5755	471667.682096455286	1699.3083260022
0	5766	472770.396419847424	2123.3629326336
0	5777	473484.123498620506	2100.3783547785
0	5782	473949.849904049229	1878.2534024678
0	5795	475204.09361855131	2376.0929562617
0	5804	476076.351497741457	2592.227999121
0	5809	476417.639597458806	2090.6624427997
0	5818	476987.680970085825	1783.5873515345
0	5829	478138.884464046027	2062.5329663046
0	5838	478889.211383694823	1959.5369956456
0	5849	479850.249929493333	2379.5639916323
0	5856	480591.440550657029	2347.7219228167
0	5863	481315.312865003983	2339.0508393757
0	5876	482053.677955409552	2203.4280259162
0	5881	482511.304901819716	1905.8248125482
0	5892	483358.506222814361	1890.4793802649
0	5899	483886.25123729002	1832.5732818805
0	5908	484511.389676481525	1569.6915526874
0	5921	485761.775415111374	2034.8362935707
0	5926	486115.464292047586	1996.624364052
0	5935	486969.59325419743	2097.1872572321
0	5944	488035.785793326836	2274.0103782155
0	5953	488433.788478747051	1864.3947185017
0	5964	489675.239813094999	2253.6371990573
0	5971	490115.996950864832	2014.4167461433
0	5984	490887.606552103575	1928.2859116327
0	5989	491568.291460583027	1817.0660683885
0	6000	492519.237948115956	2207.8104397282
0	6007	493039.345102664125	2151.7385505605
0	6016	493389.374058740255	1702.7897434775
0	6021	494202.120048925323	1664.3605825491
0	6030	494906.021427596031	1525.6468144711
0	6043	496066.97858925913	1843.5956436675
0	6054	497055.615620641081	2016.1351871677
0	6063	497749.686449719635	2021.016635187
0	6070	498499.40774906431	2010.2796422783
0	6083	499430.459800735159	2054.9260491505
0	6092	500303.137091361029	2385.4410179425
0	6097	500624.954746663613	1976.652576495
0	6110	501661.920594982846	2231.4607942477
0	6115	502051.021349290429	1747.8842579294
0	6126	503056.551395868926	2157.6029787306
0	6137	504226.451220084025	2564.5306251012
0	6144	505084.206310194029	2611.7845794652
0	6155	505964.048264035998	2606.9557765033
0	6160	506575.108102848796	2348.6568827648
0	6171	507527.455417765347	2442.3627472948
0	6180	508382.644631573973	2418.596367538
0	6187	508744.935760041741	1904.4288706966
0	6196	509662.718319520397	1954.0466031991
0	6209	510707.130702724723	2219.375825068
0	6216	511051.059730863241	1701.6914689913
0	6227	511840.818206174341	1901.484290231
0	6236	512684.893273422536	1977.7625706978
0	6241	513489.146929839667	2394.1984422505
0	6254	514330.254320288119	2489.4361141138
0	6261	514695.180377690164	2010.2871042676
0	6272	515497.283431235743	1939.5896290429
0	6277	515920.96540220086	1590.7110819127
0	6286	516451.575102936518	1734.0306767263
0	6295	517376.161748310593	1878.8783170748
0	6308	518737.392050167589	2448.9906441886
0	6315	519540.517838532148	2495.4170598183
0	6322	520027.665862161709	2175.7478269748
0	6333	520760.621308023154	2023.2292578556
0	6342	521338.911391748159	1770.2082117554
0	6351	522087.775555579036	1810.5033037718
0	6362	522964.909871947065	2080.4326075595
0	6371	523844.212532741994	2329.6568804886
0	6378	524337.22920371224	2158.972070273
0	6385	524923.078414890961	1958.1685429439
0	6394	525739.74001994361	1895.5274872016
0	6403	526227.074816543654	1719.2431701813
0	6412	527243.57759985146	2022.0775358845
0	6423	528223.318988643633	2112.3049059883
0	6432	528929.554885346489	2210.8773496002
0	6439	529621.60877161664	2014.3980443012
0	6452	530505.074700387241	2190.6123025808
0	6457	530923.850414017262	1899.1070756223
0	6466	531752.549846470403	2042.8911999799
0	6477	532448.205943638505	1943.1312432513
0	6486	533092.920596804516	1755.1376416348
0	6497	533840.635029366286	1799.1569150705
0	6506	534648.84480508049	2179.6825659927
0	6513	535366.018814547034	2080.1203097217
0	6522	536180.68862543446	2340.0535960682
0	6533	536949.970097327652	2301.1252922472
0	6542	537814.133768621879	2347.0648224
0	6551	538201.851589651825	1889.972614171
0	6558	538692.240923317196	1742.2708259895
0	6565	539024.529753578874	1210.395984957
0	6574	539893.579939752864	1691.728350101
0	6583	540653.397305170121	1808.9900222607
0	6592	541161.154674785258	1646.1052648723
0	6603	541876.249791216151	1540.0339934975
0	6614	542504.528107820126	1694.7789475322
0	6621	543340.572779998231	1994.7027416434
0	6628	543919.634676072794	1884.6818188671
0	6641	544917.987541062805	2413.4594332427
0	6650	545644.845830043826	2267.5530717708
0	6659	546414.618044067222	2184.0391240083
0	6666	547041.63876227108	2123.6512212083
0	6675	548002.42806561296	2357.5822355691
0	6686	548857.012614095631	2442.3945700284
0	6691	549290.860970690894	1995.4631726257
0	6700	549983.682142384398	1817.6179708913
0	6711	550663.989134319175	1806.9765202235
0	6722	551851.334784133408	2114.5573555492
0	6729	552279.516820376787	2020.5796638038
0	6738	552810.75941766617	1665.0859081652
0	6749	553667.142853327143	1815.8080691937
0	6756	554216.712935920852	1719.3561385386
0	6763	554839.280054485473	1949.718549801
0	6774	555634.840006381321	1967.6971530542
0	6783	556230.732082156512	1813.6411116924
0	6794	556983.655389910611	1857.6398056
0	6799	557415.070123784291	1668.6119993683
0	6808	557981.224633567082	1744.7767816018
0	6817	559045.459205936688	2061.8038160261
0	6828	559876.74710252327	2049.7765772045
0	6839	560340.788452606696	1674.5463377796
0	6846	561144.56048151483	2063.1983800326
0	6857	562058.292423421565	2173.4082849696
0	6864	562863.819385366562	2523.0309327599
0	6873	563588.964710198391	2410.4909027461
0	6880	563940.00652595428	1881.7141025327
0	6893	564850.769276870463	1956.3545183279
0	6902	565525.73381946427	1731.472972082
0	6907	566029.382522637073	1858.0636197701
0	6918	566759.961881674875	1909.1926048044
0	6927	567684.150540735621	2158.4167212714
0	6938	568560.050444025595	2234.4536148012
0	6945	569119.928905740429	2111.7937889881
0	6956	570122.764224093457	2426.4390855096
0	6963	570816.451601497879	2256.4011574723
0	6970	571432.422651909342	2029.2314421851
0	6981	572174.9390282203	2052.1748041268
0	6992	573060.356065956925	2055.5672971532
0	7001	573959.335892787253	2387.3313976452
0	7010	574662.356370315006	2258.8306289166
0	7019	575211.497870273938	2151.141804317
0	7028	575922.559861186942	1963.2239683997
0	7035	576564.458039403012	1902.101669088
0	7044	577239.117799373394	2027.6199290995
0	7053	578096.436742320707	2173.8768811338
0	7064	578988.899892708337	2293.3544465806
0	7069	579507.895513018644	2236.3319934346
0	7078	580266.329267201996	2166.2093144842
0	7089	581023.645053478008	2034.7451607697
0	7098	582124.988745572096	2305.7283375878
0	7105	582533.995745005137	1913.3639534935
0	7114	583502.208605222455	2158.5677811876
0	7127	584464.114852622202	2270.4064991791
0	7134	584853.655848931572	2000.7134879474
0	7141	585682.1048688144	2097.1022978425
0	7152	586440.074744029021	1975.9598914068
0	7163	587344.881249731457	1999.3224352598
0	7172	588094.609024096331	2382.9530807678
0	7179	588642.712066043219	2092.8741167765
0	7190	589533.273853641054	2188.3926039096
0	7197	589976.405816339007	1881.7967922427
0	7208	590835.45338921254	1982.217640942
0	7215	591446.786288358322	1913.5124347173
0	7222	592102.133890846795	1955.6049747393
0	7233	592969.983130786618	2134.5297415741
0	7242	594135.99156215792	2447.8714270983
0	7251	594708.192119188657	2152.1954479627
0	7258	595740.243291528946	2372.6902669296
0	7267	596193.02340745931	1939.9460257497
0	7272	596635.071603348529	1579.7093777452
0	7289	598189.254220901107	2295.4045873135
0	7298	598859.021527133932	2107.4897236191
0	7303	599277.946931496313	1657.1286218707
0	7312	600112.297448376244	1923.0432274751
0	7325	601087.214102363264	2228.1925752293
0	7330	601600.860158214396	1866.8191309087
0	7343	602613.857536995834	2223.154000612
0	7350	603159.368117479658	2072.1540151164
0	7357	603479.975539958155	1580.1371145062
0	7368	604755.983781628361	2142.1262446325
1	3190	260355.728116817798	353
1	3203	261235.071690101203	354
1	3208	261558.909008000073	355
1	3217	262250.520662823719	356
1	3228	263236.37976190078	357
1	3239	264148.417801363421	358
1	3244	264472.678994340849	359
1	3255	265574.449353665141	360
1	3264	266269.429431762574	361
1	3271	266825.250715808971	362
1	3280	267231.309522874682	363
1	3289	267663.623859733371	364
1	3300	268304.575566016166	365
1	3309	269310.976774664625	366
1	3318	269890.641484223336	367
1	3327	270629.319658409834	368
1	3338	271599.779436970158	369
1	3347	272494.845897657825	370
1	3352	273027.147077070577	371
1	3361	273883.712375583156	372
1	3370	274559.33604449968	373
1	3379	275030.456894869013	374
1	3388	275720.919051021366	375
1	3401	276796.52894977483	376
1	3408	277562.30529709722	377
1	3417	278052.203898970066	378
1	3424	278382.184674264891	379
1	3433	279010.076191183208	380
1	3442	279792.813955061166	381
1	3451	280422.231598338141	382
1	3464	281672.070874180673	383
1	3471	282406.062765140115	384
1	3478	283226.614244794501	385
1	3491	284211.458756960957	386
1	3496	284587.001509079738	387
1	3505	285244.801490474521	388
1	3514	285940.939102275326	389
1	3525	286818.197656888544	390
1	3536	287511.69623513709	391
1	3545	288277.62365816164	392
1	3552	288789.55045226033	393
1	3559	289623.103731824115	394
1	3572	290534.985505789548	395
1	3581	291365.401910338581	396
1	3586	291784.181433543593	397
1	3597	292716.475498583198	398
1	3606	293524.249110510603	399
1	3615	294384.801448881656	400
1	3622	295094.482722552523	401
1	3635	296069.642118690566	402
1	3644	296900.184827344523	403
1	3649	297207.789791654826	404
1	3658	297754.428005637632	405
1	3667	298841.583535820276	406
1	3680	300066.152886673838	407
1	3685	300425.905947899476	408
1	3696	301506.652486464039	409
1	3703	302299.762465618581	410
1	3716	303328.734149923578	411
1	3721	303888.84317795749	412
1	3734	304779.514163872257	413
1	3739	305398.396344250098	414
1	3750	306226.966504287005	415
1	3757	306756.654616026238	416
1	3766	307806.079997168884	417
1	3779	308717.116140760512	418
1	3784	309116.653125872866	419
1	3793	309873.084674030573	420
1	3802	310799.054233962701	421
1	3813	311234.98484180312	422
1	3822	311987.594927754284	423
1	3831	312600.221643922881	424
1	3840	313393.008228438006	425
1	3847	313848.451335215972	426
1	3860	315026.723661879108	427
1	3867	315668.681028485329	428
1	3878	316430.219480535046	429
1	3883	316964.307420048893	430
1	3892	317906.608973164142	431
1	3903	318641.831126762584	432
1	3912	319427.818192401931	433
1	3919	320006.124159134955	434
1	3928	320540.994704235376	435
1	3939	321432.553875586048	436
1	3950	322141.280041448803	437
1	3955	322654.003275884346	438
1	3966	323718.360263016106	439
1	3975	324436.284326948257	440
1	3982	325036.222668830337	441
1	3993	326007.111282320725	442
1	4000	326382.982345065134	443
1	4009	327482.764298608559	444
1	4018	328196.656766580449	445
1	4023	328551.84878697622	446
1	4040	329979.29471419196	447
1	4047	330810.976714314924	448
1	4056	331465.723227337034	449
1	4063	332063.185718189957	450
1	4072	333084.818256553295	451
1	4081	333751.484844787078	452
1	4090	334298.386686528133	453
1	4101	335075.809854548456	454
1	4110	336095.922172721508	455
1	4117	336872.091736178878	456
1	4130	337939.713036222417	457
1	4137	338377.28010239083	458
1	4146	339274.10936923701	459
1	4153	339593.203353183378	460
1	4166	341073.289175843854	461
1	4173	341585.921914083917	462
1	4182	342304.403218394179	463
1	4189	342863.346029352431	464
1	4202	343911.937587428872	465
1	4207	344276.489488128607	466
1	4220	345322.32981375422	467
1	4225	345741.852909559418	468
1	4234	346461.559222312678	469
1	4247	347732.27471080612	470
1	4254	348457.234780490432	471
1	4261	348779.296667967025	472
1	4272	349985.094724455882	473
1	4283	350830.311230057884	474
1	4288	351147.50533034097	475
1	4297	351869.100067997384	476
1	4306	352581.674657017027	477
1	4317	353829.522400349413	478
1	4328	354649.061100650613	479
1	4333	355235.494065284763	480
1	4344	356055.128974188153	481
1	4351	356793.912250595201	482
1	4360	357553.737118514289	483
1	4373	358364.87142448317	484
1	4382	358993.727632798289	485
1	4387	359330.002244655077	486
1	4396	359899.645918747444	487
1	4409	361208.799059735645	488
1	4416	362042.328204168041	489
1	4423	362449.182613939081	490
1	4436	363374.667141493444	491
1	4441	363920.144022675265	492
1	4454	364721.938574407284	493
1	4463	365491.658180253615	494
1	4468	365868.106249021401	495
1	4477	366677.835755981539	496
1	4486	367404.836381552776	497
1	4495	368100.919185066631	498
1	4508	369446.502923453262	499
1	4517	370245.487419236487	500
1	4526	370980.585280666163	501
1	4533	371738.398554688355	502
1	4540	372123.33307662051	503
1	4549	372685.287265945261	504
1	4560	373681.576335383615	505
1	4571	374605.41111901406	506
1	4576	375005.186644289678	507
1	4587	375936.5959238727	508
1	4598	376783.72204243209	509
1	4607	377329.179234942456	510
1	4614	377793.989958940109	511
1	4617	378186.993592232501	512
1	4634	379671.69724842537	513
1	4643	380309.869815688616	514
1	4652	381141.684183524957	515
1	4659	381566.5918876883	516
1	4666	381982.024593930727	517
1	4675	382871.265670051834	518
1	4686	384004.809994669667	519
1	4693	384475.934232585167	520
1	4702	385261.850694241038	521
1	4713	386354.190660500935	522
1	4722	386891.205061040854	523
1	4729	387491.492633800989	524
1	4738	388507.311082631385	525
1	4747	389128.959780419281	526
1	4758	390046.804638532957	527
1	4767	390922.615895792878	528
1	4776	391481.43152100969	529
1	4785	392093.232986563852	530
1	4794	392618.591966293788	531
1	4801	393478.463782696089	532
1	4812	394433.339417399874	533
1	4819	394879.609052790364	534
1	4832	396186.041183117813	535
1	4841	396978.750703157893	536
1	4846	397348.053366970307	537
1	4859	398143.966802721879	538
1	4868	398941.935558524019	539
1	4875	399618.845340795851	540
1	4886	400422.976095881349	541
1	4893	401090.02896440219	542
1	4904	401969.039942091367	543
1	4913	402803.144811792335	544
1	4922	403445.261888299173	545
1	4927	404073.147554090282	546
1	4940	405041.400177776849	547
1	4947	405710.045691160521	548
1	4954	406211.333412956482	549
1	4963	406973.191883834115	550
1	4972	407844.500894984266	551
1	4985	408871.960887685453	552
1	4992	409575.775017449667	553
1	4999	410136.601484846358	554
1	5008	410820.032939733973	555
1	5019	411747.430624812878	556
1	5026	412177.875784132665	557
1	5039	413036.050937511062	558
1	5044	413347.367649665138	559
1	5057	414355.552275572007	560
1	5066	415105.55354263637	561
1	5071	415702.285749698093	562
1	5080	416451.13114980053	563
1	5093	417279.435896454414	564
1	5100	418028.152218181675	565
1	5111	418953.399567492342	566
1	5116	419318.04798035886	567
1	5125	420054.223996494001	568
1	5134	420723.772046109698	569
1	5147	421848.157043242864	570
1	5152	422199.464323930479	571
1	5161	422919.766986463256	572
1	5170	423808.662271220274	573
1	5183	424930.446714023166	574
1	5192	425782.51455472786	575
1	5201	426345.793175138571	576
1	5208	426985.978624317833	577
1	5219	427716.947516659313	578
1	5224	428170.085454778784	579
1	5235	429019.779118616173	580
1	5242	429695.726697240064	581
1	5251	430179.982883529776	582
1	5262	431420.124137168788	583
1	5271	432149.779123161026	584
1	5280	432686.068688426205	585
1	5287	433481.147329788692	586
1	5298	434331.817072816231	587
1	5307	435114.625326823481	588
1	5314	435524.657155992501	589
1	5323	436186.162094492502	590
1	5332	437206.14415160384	591
1	5341	437947.070612479038	592
1	5350	438608.071173168755	593
1	5363	439720.093087479508	594
1	5368	440608.621527627146	595
1	5377	441071.653173957056	596
1	5390	441963.453136151693	597
1	5399	442826.148133585266	598
1	5404	443570.180378202385	599
1	5417	444097.664298908822	600
1	5424	444902.585894381665	601
1	5435	445814.222091436423	602
1	5440	446444.651674479283	603
1	5453	447480.581531021781	604
1	5462	448109.510338073633	605
1	5469	448463.54700112719	606
1	5476	448816.416129609606	607
1	5485	449614.109382592178	608
1	5494	450323.263134900517	609
1	5507	451644.326820317693	610
1	5514	452145.42137738321	611
1	5521	453096.618792973496	612
1	5534	453768.591813929417	613
1	5543	454496.975038759448	614
1	5550	454870.864535775073	615
1	5561	455886.927937204056	616
1	5570	456761.729283258357	617
1	5579	457392.190636647903	618
1	5588	458187.642738735341	619
1	5595	458794.480400858485	620
1	5602	459348.269148683214	621
1	5611	460582.734208088406	622
1	5624	461508.626601006874	623
1	5631	462003.100766334721	624
1	5638	462324.18707446199	625
1	5647	463344.013649923765	626
1	5656	463705.241948179939	627
1	5669	464473.437753086948	628
1	5674	464825.818524090612	629
1	5685	465728.046333650165	630
1	5692	466401.94316357378	631
1	5701	467638.931965827981	632
1	5710	468127.184470603281	633
1	5719	468871.049012616316	634
1	5730	469838.914313307071	635
1	5737	470408.499020850325	636
1	5746	471221.774562075774	637
1	5755	471667.682096455286	638
1	5766	472770.396419847424	639
1	5777	473484.123498620506	640
1	5782	473949.849904049229	641
1	5795	475204.09361855131	642
1	5804	476076.351497741457	643
1	5809	476417.639597458806	644
1	5818	476987.680970085825	645
1	5829	478138.884464046027	646
1	5838	478889.211383694823	647
1	5849	479850.249929493333	648
1	5856	480591.440550657029	649
1	5863	481315.312865003983	650
1	5876	482053.677955409552	651
1	5881	482511.304901819716	652
1	5892	483358.506222814361	653
1	5899	483886.25123729002	654
1	5908	484511.389676481525	655
1	5921	485761.775415111374	656
1	5926	486115.464292047586	657
1	5935	486969.59325419743	658
1	5944	488035.785793326836	659
1	5953	488433.788478747051	660
1	5964	489675.239813094999	661
1	5971	490115.996950864832	662
1	5984	490887.606552103575	663
1	5989	491568.291460583027	664
1	6000	492519.237948115956	665
1	6007	493039.345102664125	666
1	6016	493389.374058740255	667
1	6021	494202.120048925323	668
1	6030	494906.021427596031	669
1	6043	496066.97858925913	670
1	6054	497055.615620641081	671
1	6063	497749.686449719635	672
1	6070	498499.40774906431	673
1	6083	499430.459800735159	674
1	6092	500303.137091361029	675
1	6097	500624.954746663613	676
1	6110	501661.920594982846	677
1	6115	502051.021349290429	678
1	6126	503056.551395868926	679
1	6137	504226.451220084025	680
1	6144	505084.206310194029	681
1	6155	505964.048264035998	682
1	6160	506575.108102848796	683
1	6171	507527.455417765347	684
1	6180	508382.644631573973	685
1	6187	508744.935760041741	686
1	6196	509662.718319520397	687
1	6209	510707.130702724723	688
1	6216	511051.059730863241	689
1	6227	511840.818206174341	690
1	6236	512684.893273422536	691
1	6241	513489.146929839667	692
1	6254	514330.254320288119	693
1	6261	514695.180377690164	694
1	6272	515497.283431235743	695
1	6277	515920.96540220086	696
1	6286	516451.575102936518	697
1	6295	517376.161748310593	698
1	6308	518737.392050167589	699
1	6315	519540.517838532148	700
1	6322	520027.665862161709	701
1	6333	520760.621308023154	702
1	6342	521338.911391748159	703
1	6351	522087.775555579036	704
1	6362	522964.909871947065	705
1	6371	523844.212532741994	706
1	6378	524337.22920371224	707
1	6385	524923.078414890961	708
1	6394	525739.74001994361	709
1	6403	526227.074816543654	710
1	6412	527243.57759985146	711
1	6423	528223.318988643633	712
1	6432	528929.554885346489	713
1	6439	529621.60877161664	714
1	6452	530505.074700387241	715
1	6457	530923.850414017262	716
1	6466	531752.549846470403	717
1	6477	532448.205943638505	718
1	6486	533092.920596804516	719
1	6497	533840.635029366286	720
1	6506	534648.84480508049	721
1	6513	535366.018814547034	722
1	6522	536180.68862543446	723
1	6533	536949.970097327652	724
1	6542	537814.133768621879	725
1	6551	538201.851589651825	726
1	6558	538692.240923317196	727
1	6565	539024.529753578874	728
1	6574	539893.579939752864	729
1	6583	540653.397305170121	730
1	6592	541161.154674785258	731
1	6603	541876.249791216151	732
1	6614	542504.528107820126	733
1	6621	543340.572779998231	734
1	6628	543919.634676072794	735
1	6641	544917.987541062805	736
1	6650	545644.845830043826	737
1	6659	546414.618044067222	738
1	6666	547041.63876227108	739
1	6675	548002.42806561296	740
1	6686	548857.012614095631	741
1	6691	549290.860970690894	742
1	6700	549983.682142384398	743
1	6711	550663.989134319175	744
1	6722	551851.334784133408	745
1	6729	552279.516820376787	746
1	6738	552810.75941766617	747
1	6749	553667.142853327143	748
1	6756	554216.712935920852	749
1	6763	554839.280054485473	750
1	6774	555634.840006381321	751
1	6783	556230.732082156512	752
1	6794	556983.655389910611	753
1	6799	557415.070123784291	754
1	6808	557981.224633567082	755
1	6817	559045.459205936688	756
1	6828	559876.74710252327	757
1	6839	560340.788452606696	758
1	6846	561144.56048151483	759
1	6857	562058.292423421565	760
1	6864	562863.819385366562	761
1	6873	563588.964710198391	762
1	6880	563940.00652595428	763
1	6893	564850.769276870463	764
1	6902	565525.73381946427	765
1	6907	566029.382522637073	766
1	6918	566759.961881674875	767
1	6927	567684.150540735621	768
1	6938	568560.050444025595	769
1	6945	569119.928905740429	770
1	6956	570122.764224093457	771
1	6963	570816.451601497879	772
1	6970	571432.422651909342	773
1	6981	572174.9390282203	774
1	6992	573060.356065956925	775
1	7001	573959.335892787253	776
1	7010	574662.356370315006	777
1	7019	575211.497870273938	778
1	7028	575922.559861186942	779
1	7035	576564.458039403012	780
1	7044	577239.117799373394	781
1	7053	578096.436742320707	782
1	7064	578988.899892708337	783
1	7069	579507.895513018644	784
1	7078	580266.329267201996	785
1	7089	581023.645053478008	786
1	7098	582124.988745572096	787
1	7105	582533.995745005137	788
1	7114	583502.208605222455	789
1	7127	584464.114852622202	790
1	7134	584853.655848931572	791
1	7141	585682.1048688144	792
1	7152	586440.074744029021	793
1	7163	587344.881249731457	794
1	7172	588094.609024096331	795
1	7179	588642.712066043219	796
1	7190	589533.273853641054	797
1	7197	589976.405816339007	798
1	7208	590835.45338921254	799
1	7215	591446.786288358322	800
1	7222	592102.133890846795	801
1	7233	592969.983130786618	802
1	7242	594135.99156215792	803
1	7251	594708.192119188657	804
1	7258	595740.243291528946	805
1	7267	596193.02340745931	806
1	7272	596635.071603348529	807
1	7289	598189.254220901107	808
1	7298	598859.021527133932	809
1	7303	599277.946931496313	810
1	7312	600112.297448376244	811
1	7325	601087.214102363264	812
1	7330	601600.860158214396	813
1	7343	602613.857536995834	814
1	7350	603159.368117479658	815
1	7357	603479.975539958155	816
1	7368	604755.983781628361	817

