version 2
run Pipeline_7teachers-10-20181220-18:43:15-18208
attr configname Pipeline_7teachers
attr datetime 20181220-18:43:15
attr experiment Pipeline_7teachers
attr inifile omnetpp.ini
attr iterationvars "$0=\"lognormal\""
attr iterationvarsf lognormal-
attr measurement "$0=\"lognormal\""
attr network PipelinedExamSession
attr processid 18208
attr repetition 0
attr replication #0
attr resultdir results
attr runnumber 10
attr seedset 0
param **.teachersNumber 7
param **.answerTimeDistribution "\"lognormal\""
param **.minUniform 300
param **.maxUniform 1800
param **.scaleLognormal 6.8153
param **.shapeLognormal 0.5316

vector 0 PipelinedExamSession examinationTime:vector ETV
attr source examFinished
vector 1 PipelinedExamSession studentsWaitingTime:vector ETV
attr source waitingTime
vector 2 PipelinedExamSession teachersIdleTime:vector ETV
attr source idleTime
0	49	6377.270408499889	6377.2704084999
0	120	12025.102430643511	11504.216838571
0	143	13432.918867045752	11452.824746493
0	164	15209.887116726789	11917.82258359
0	175	15934.527651613885	10035.564812783
0	200	17457.877123662461	9857.4811926235
0	205	18142.42086924166	8139.6165703242
0	266	24737.227887584229	13757.406036021
0	271	25505.802935030667	13088.932115308
0	312	29028.529575781425	14413.969419463
0	335	30433.415188059764	14488.755077193
0	348	31113.055124506185	10940.209841813
0	387	32790.210040108798	11657.625520399
0	418	35555.484986245155	12136.480483732
0	429	36011.153234520357	9005.3233204738
0	438	36630.073548421372	8152.5707001893
0	447	37181.688216447951	7037.1119562118
0	476	38974.391380892006	7649.0675930407
0	535	43283.250494837028	11017.30499062
0	546	44566.340096971118	9772.8519595388
0	587	48188.947127031926	10730.558129829
0	602	50599.828307387595	12312.607634199
0	605	51078.810628343208	11422.866913304
0	656	54496.562820989669	12893.134203483
0	675	55703.986522976775	12494.944868026
0	688	56432.839912769082	10593.421843313
0	719	58214.929401841337	10572.209232363
0	760	59662.678555729038	8171.3853954432
0	769	60893.597526552372	8211.6741781833
0	800	62793.850813625671	8268.2873443394
0	803	63200.888906949447	6565.4756169421
0	852	65872.674576864157	7943.2647811742
0	881	66946.139349157087	8036.378524966
0	904	68941.581720707719	9321.2174333475
0	923	70796.43068934808	9413.5016147524
0	948	72549.503769458435	9278.5572474499
0	959	73501.380263687042	8520.419445433
0	974	74640.417266367486	8582.4314954614
0	1031	78402.324097614169	11307.53565703
0	1046	79881.836949602438	9637.9248067994
0	1061	81328.830352519112	9942.6357656309
0	1090	82593.4691098227	8111.9043020714
0	1123	84769.013198827462	9081.7952107398
0	1132	85397.795218093406	8542.5182417005
0	1165	87348.655888613731	6413.8600961352
0	1190	89133.944444521348	7453.0750774005
0	1237	92021.791184023424	9490.826475049
0	1248	92449.67075145695	7782.180783266
0	1285	94671.617953680732	8741.7113045836
0	1316	97247.005066294599	10102.548806497
0	1335	98153.187550137257	9516.2973165234
0	1364	100619.464614476078	10433.950902862
0	1397	104829.224115076766	13101.024049017
0	1416	105690.011627228455	12270.954428343
0	1427	106800.654070889021	12429.393839271
0	1440	107343.147680879392	11110.230270673
0	1465	110304.182067532341	12391.132244484
0	1492	111632.253839584918	11518.995982341
0	1541	116796.902621940475	14882.287792608
0	1568	118525.013370156403	13695.78925508
0	1581	119000.176999992264	11740.044582062
0	1610	120436.314677591954	10586.56150891
0	1631	122429.464020582598	11224.181257127
0	1644	122861.738529520328	10472.153695532
0	1671	124428.812119112206	8477.6793740705
0	1700	125959.120861188097	8161.9388340138
0	1709	126745.194057909546	7455.1515161826
0	1724	127710.527552892002	7548.3601049524
0	1761	131592.770609243177	8918.0934229298
0	1778	133899.134245847584	10012.45826408
0	1839	138012.424406302884	12842.811620688
0	1848	138438.023505821456	10928.071145001
0	1871	140149.349557620245	11002.274830971
0	1916	142885.505783852694	10102.747154427
0	1935	143223.278302987751	8819.0722841575
0	1946	144226.770498482342	8094.177325295
0	1961	145046.698884768789	7493.5832555015
0	2014	149298.936458774648	10012.987851373
0	2023	149584.750225502159	8784.6860838715
0	2044	151794.875101668292	9628.2889889937
0	2053	152066.729136492419	8896.0622515631
0	2070	153450.057728140793	7333.2866176175
0	2095	155569.289991702372	7834.9707396568
0	2112	156943.595544431738	7160.5393675956
0	2157	163952.603752420712	10666.827937956
0	2184	165142.510199790108	10752.957221198
0	2217	167352.409469624732	11134.573732104
1	49	6377.270408499889	0
1	120	12025.102430643511	797.73407692059
1	143	13432.918867045752	5290.0501109555
1	164	15209.887116726789	3664.7488017599
1	175	15934.527651613885	4350.2427113218
1	200	17457.877123662461	2218.6166614612
1	205	18142.42086924166	3058.1372367808
1	266	24737.227887584229	1350.4039290364
1	271	25505.802935030667	8295.9652031717
1	312	29028.529575781425	3396.0187284175
1	335	30433.415188059764	8757.4092077171
1	348	31113.055124506185	2851.6050321532
1	387	32790.210040108798	4184.7776596842
1	418	35555.484986245155	4639.3469977327
1	429	36011.153234520357	3105.9790017558
1	438	36630.073548421372	3016.2792125269
1	447	37181.688216447951	2862.1797904756
1	476	38974.391380892006	677.52243962998
1	535	43283.250494837028	2001.2874027112
1	546	44566.340096971118	2363.8993110957
1	587	48188.947127031926	2892.7282802803
1	602	50599.828307387595	4237.2631487817
1	605	51078.810628343208	3612.317318963
1	656	54496.562820989669	2756.2088074218
1	675	55703.986522976775	6928.5592544124
1	688	56432.839912769082	4483.0634765367
1	719	58214.929401841337	3820.9605656961
1	760	59662.678555729038	827.20335578824
1	769	60893.597526552372	1180.9034044097
1	800	62793.850813625671	2035.3481017032
1	803	63200.888906949447	1390.5751105452
1	852	65872.674576864157	1118.6483626667
1	881	66946.139349157087	1871.0869630687
1	904	68941.581720707719	25.113465117929
1	923	70796.43068934808	2260.7571498703
1	948	72549.503769458435	1795.8142127778
1	959	73501.380263687042	1399.9709889503
1	974	74640.417266367486	316.22997183537
1	1031	78402.324097614169	2313.3805339417
1	1046	79881.836949602438	2546.8427484895
1	1061	81328.830352519112	3637.5568147707
1	1090	82593.4691098227	611.01834154612
1	1123	84769.013198827462	859.24298930785
1	1132	85397.795218093406	3447.4544840125
1	1165	87348.655888613731	543.64392787667
1	1190	89133.944444521348	230.52016992395
1	1237	92021.791184023424	1633.6907494172
1	1248	92449.67075145695	1024.7114939081
1	1285	94671.617953680732	950.58786230944
1	1316	97247.005066294599	1489.9183041761
1	1335	98153.187550137257	1710.642505535
1	1364	100619.464614476078	1663.8826578002
1	1397	104829.224115076766	4491.2267725535
1	1416	105690.011627228455	5577.4192158422
1	1427	106800.654070889021	4518.8575300034
1	1440	107343.147680879392	6790.0981299441
1	1465	110304.182067532341	3185.0996317826
1	1492	111632.253839584918	4602.7095318617
1	1541	116796.902621940475	3779.2917730219
1	1568	118525.013370156403	6990.9011221676
1	1581	119000.176999992264	4549.4856724272
1	1610	120436.314677591954	4654.1692811371
1	1631	122429.464020582598	4207.9240762501
1	1644	122861.738529520328	4335.6347006876
1	1671	124428.812119112206	1704.8198619071
1	1700	125959.120861188097	1835.3099815515
1	1709	126745.194057909546	1120.7765115192
1	1724	127710.527552892002	2292.2604212044
1	1761	131592.770609243177	976.15049328777
1	1778	133899.134245847584	786.08186734105
1	1839	138012.424406302884	852.94728282043
1	1848	138438.023505821456	3592.9468350566
1	1871	140149.349557620245	2668.8871351204
1	1916	142885.505783852694	1645.4652745151
1	1935	143223.278302987751	2881.0520188245
1	1946	144226.770498482342	2437.0363042683
1	1961	145046.698884768789	1150.5392664996
1	2014	149298.936458774648	896.47951493042
1	2023	149584.750225502159	2050.1221036605
1	2044	151794.875101668292	3823.3997778881
1	2053	152066.729136492419	2811.1449871204
1	2070	153450.057728140793	1193.9662831947
1	2095	155569.289991702372	0
1	2112	156943.595544431738	0
1	2157	163952.603752420712	0
1	2184	165142.510199790108	73.856179295712
1	2217	167352.409469624732	4715.6290741615
2	2224	172800	82489.100253714
2	2224	172800	58591.372303527
2	2224	172800	67013.679253075
2	2224	172800	63299.693283508
2	2224	172800	82535.449904915
2	2224	172800	70895.139128358
2	2224	172800	91321.381412712

