version 2
run Pipelined_3Teachers-57-20190105-10:57:30-14920
attr configname Pipelined_3Teachers
attr datetime 20190105-10:57:30
attr experiment Pipelined_3Teachers
attr inifile ../simulations/omnetpp.ini
attr iterationvars "$0=\"uniform\""
attr iterationvarsf uniform-
attr measurement "$0=\"uniform\""
attr network PipelinedExamSession
attr processid 14920
attr repetition 57
attr replication #57
attr resultdir results
attr runnumber 57
attr seedset 57
param **.teachersNumber 3
param **.answerTimeDistribution "\"uniform\""
param **.minUniform 300
param **.maxUniform 900
param **.scaleLognormal 6.2854
param **.shapeLognormal 0.4724

vector 0 PipelinedExamSession examinationTime:vector ETV
attr source examFinished
vector 1 PipelinedExamSession studentID:vector ETV
attr source student
0	3199	260779.276234796284	2143.3627108578
0	3208	261185.774788353605	1875.0256346539
0	3219	262657.512678438811	2487.6468237955
0	3226	263080.611257907017	2021.5267639607
0	3235	263973.748022736995	2036.9536004495
0	3248	264821.777597581981	2043.0699489545
0	3255	265330.681374762221	2053.6701381672
0	3262	266011.005639564259	1867.8540070541
0	3271	266586.304028145982	1764.526430564
0	3282	267713.807130279033	2176.9244040828
0	3293	268595.154988998561	2315.0068391114
0	3302	269434.906682046144	2395.2231955715
0	3309	270000.56291688235	2152.6140710805
0	3316	270559.854232287048	1964.6992432885
0	3325	271395.982954138903	1961.0762720928
0	3336	272252.054784446969	2136.1552766059
0	3347	273206.27399780789	2410.4660678655
0	3354	274028.462456585854	2342.1785299201
0	3365	274785.544276563466	2474.4410705287
0	3370	275331.653209403173	2125.3792115953
0	3381	276199.455048423276	2118.7335242517
0	3392	277130.274802492947	2344.7305259295
0	3401	277909.58196711728	2374.3083790876
0	3408	278306.45482577385	2041.9578662608
0	3419	279207.958507072196	2077.6837045792
0	3424	279623.925202712432	1714.3432355952
0	3437	280616.512714186699	1886.3300539088
0	3442	281228.601672314123	2020.6431652419
0	3451	281786.991259921358	1883.0048540141
0	3462	282537.724080914647	1921.2113667279
0	3469	283079.306371416912	1692.0192126185
0	3480	284114.588488731548	2224.6810369659
0	3487	284936.980186169982	2235.4650955182
0	3500	285947.764429450051	2451.7792318482
0	3507	286754.381681140528	2386.2147381529
0	3518	287495.416140323521	2305.6591780856
0	3523	288075.73862476276	2127.9741953127
0	3534	289066.409207414852	2308.7789593264
0	3543	289902.055627992393	2406.6394876689
0	3552	290541.821916215138	2149.0259669255
0	3561	291198.183447774516	1966.4737243205
0	3568	291839.19336874971	1933.2204951905
0	3579	292744.486455945315	2117.4577956554
0	3586	293050.73877344841	1653.7465977017
0	3597	294301.105243619549	2060.7547043357
0	3604	294699.135066708567	1771.8131672591
0	3615	295442.340214177984	1955.4649300408
0	3622	296290.511950152013	1982.0097225253
0	3633	296707.558444608021	1823.608903354
0	3640	297307.688629115019	1586.175364349
0	3649	297812.54663793372	1424.7316116001
0	3658	298724.222302716244	1908.0707018729
0	3671	299655.167438602093	2143.4180059936
0	3680	300352.140777837503	1960.5114615988
0	3689	301048.924582684431	2261.5366215818
0	3696	301494.811898237113	1839.644459635
0	3707	302680.846121767554	2328.7053439301
0	3712	303258.741392428074	2209.8168097436
0	3721	303741.726410156134	1819.6128670592
0	3734	304509.797850251216	1828.9517284837
0	3743	305335.136890690792	1877.9554832261
0	3750	305954.531219461951	2088.6202752125
0	3761	306741.300647193584	2231.5027969424
0	3770	307341.02869662458	2005.8918059338
0	3775	307754.011523583922	1577.2299008444
0	3788	308955.534735694545	2214.234088501
0	3795	309673.174512432906	2332.1458158083
0	3804	310216.701914509776	1980.7383395266
0	3815	311239.446105994302	2283.9113702998
0	3820	311727.67161587255	2025.9964738972
0	3831	312741.387258516643	2182.9969223589
0	3838	313061.585530545581	1822.1394245513
0	3851	313765.034966636468	1679.133512266
0	3856	314330.568018229697	1566.1433016881
0	3865	314953.460095496867	1615.7817597035
0	3878	316064.283571997677	2299.2486053612
0	3887	316822.537610074525	2290.9773312975
0	3892	317594.224861823042	2264.4843113143
0	3903	318101.574517507126	2037.2909455094
0	3914	319417.121364874786	2594.5837548003
0	3923	319944.020244944861	2265.5026442371
0	3930	320499.037283705568	1932.228213083
0	3937	321059.362867986804	1642.241503112
0	3950	322323.669153638205	2379.6489086933
0	3959	323019.88573987039	2208.538189251
0	3968	323772.939109336605	2102.0147128031
0	3977	324577.450464293381	2253.7813106552
0	3986	325402.395342523252	2382.5096026529
0	3993	325966.659954702502	2193.7208453659
0	4000	326300.446291454157	1722.9958271608
0	4009	327557.637490751242	2155.242148228
0	4020	328601.711667794754	2380.4440494161
0	4031	329216.643935116028	2188.6511519551
0	4036	329766.368279512992	1944.5312529802
0	4045	330417.03109969387	1718.9896227792
0	4056	331463.168740645072	2246.524805529
0	4065	332135.218678135446	2081.8466315512
0	4072	332531.774155749029	1632.6028869487
0	4083	333785.050748381785	2072.2315570805
0	4094	334689.745393535143	2478.5914524458
0	4099	335008.004989475033	2049.735212652
0	4108	336280.752897681689	2459.0745057911
0	4117	336737.414166564142	2047.668773029
0	4128	337912.589707877507	2417.4231306184
0	4135	338601.811437495074	2221.5960382484
0	4148	339661.570397671333	2384.4448927324
0	4155	340196.404653042576	2077.1836553235
0	4166	341280.333998473382	2450.8442023303
0	4175	341909.609408956042	2248.0390112847
0	4180	342245.782215474194	1865.0982529856
0	4193	343089.255454810357	1808.921456337
0	4198	343648.994680400959	1739.3852714449
0	4211	344776.224264968208	2170.2440387104
0	4220	345473.621658096111	2384.3662032858
0	4225	345855.795955751112	1940.0255464017
0	4234	346630.575542198515	1854.3512772303
0	4243	347548.016526689775	2074.3948685937
0	4252	348283.041829476155	1944.4787980523
0	4263	348964.025365887232	1753.0234961305
0	4272	349720.03763113173	1898.1276815291
0	4283	350674.196855491049	2094.9617510196
0	4292	351288.224128726892	2055.0944516435
0	4301	352146.459050523139	2283.28633192
0	4308	352790.539488662056	2116.342633171
0	4319	353746.849053958453	2458.6249252316
0	4328	354516.777538508199	2370.3184879851
0	4333	354819.035464664943	1957.4224265758
0	4346	355777.185868006222	2030.3368140478
0	4355	356613.924480183073	2097.1469416749
0	4362	357356.9356271066	2225.6988467183
0	4371	358168.256992567354	2391.0711245611
0	4382	359047.388665890344	2433.4641857073
0	4387	359622.067078761779	2169.4910442922
0	4398	360453.154174843826	2268.4526881669
0	4407	361185.495637357258	2138.1069714669
0	4416	361575.745096849301	1746.3173212018
0	4427	362173.986333003291	1665.762933204
0	4432	362474.869808647805	1274.2311243899
0	4443	363368.622405175143	1721.1542492732
0	4450	363897.15348654429	1723.167153541
0	4461	364773.518374934816	2072.6187145337
0	4472	365274.207282811427	1691.5155260358
0	4477	365666.125471098372	1484.4483823981
0	4488	366744.391564931744	1926.5706945676
0	4495	367241.682580020302	1967.4752972089
0	4504	367846.303339535394	1818.0384802166
0	4513	368617.46423793959	1768.1544222403
0	4524	369590.333438571566	2071.3922810275
0	4531	370287.9536200315	1938.6164498515
0	4544	371231.024686060869	2312.0372077916
0	4551	371753.597625391581	2084.8462679889
0	4560	372500.9422243573	2127.8791890945
0	4569	373259.623563336232	2028.5988772754
0	4576	373668.516694894083	1724.6426712256
0	4589	375019.940895354398	2401.2990816962
0	4594	375550.385140674212	2192.7795169875
0	4605	376278.664962574862	2146.2723316625
0	4612	376692.023002775409	1672.082107421
0	4623	377383.852028008573	1512.3966425657
0	4634	378050.469561154045	1744.694215944
0	4639	378599.418317154072	1755.958196288
0	4648	379266.441604262241	1705.7960375212
0	4659	380461.193171655782	2410.7236105017
0	4666	380941.324557876238	1994.6230118629
0	4675	381614.808220043802	1983.3812293131
0	4684	381980.708698695549	1498.8975801039
0	4693	382747.256485791901	1444.6314877365
0	4702	383457.082733977609	1735.6167869177
0	4711	384219.647380337143	1861.7457505781
0	4720	384822.384709026689	1576.7162896693
0	4731	385805.352489464009	1928.2261274289
0	4738	386411.192848579982	1870.6000592094
0	4749	387543.634652998322	2236.4510228857
0	4756	387888.173120515445	1791.1356453784
0	4769	389055.966642871523	2159.0809992515
0	4778	389715.886645903835	1986.006098846
0	4787	390497.609994141409	2247.5515781902
0	4796	391223.312186496356	2167.3455436248
0	4801	391603.780490253144	1887.8938443493
0	4814	392891.073157265806	2393.4631631244
0	4823	393740.968821756565	2517.6566352602
0	4828	394076.558696385496	2020.2476056293
0	4841	395207.255416084104	2316.1822588183
0	4850	396054.55696745778	2313.5881457012
0	4859	396686.168992146873	2246.869195858
0	4864	397206.462301639863	1999.2068855558
0	4877	398289.807676663646	2235.2507092059
0	4884	398777.694185217866	2091.525193071
0	4893	399305.81350307914	1890.2246661019
0	4900	399919.319118093723	1629.5114414301
0	4913	401088.497824547837	2202.8226820752
0	4920	401881.790692079837	2477.1309851669
0	4931	402825.52436725239	2550.2622328699
0	4936	403239.162099408011	2150.6642748602
0	4947	404048.083791509296	2097.054486908
0	4954	404767.875034455235	1942.3506672028
0	4963	405228.624502988558	1730.5624307133
0	4972	406006.234975531723	1938.3012542501
0	4981	406420.479268301305	1541.5006625466
0	4992	407534.999893885132	2107.9309474211
0	5003	408433.133224770453	2124.674803298
0	5012	409097.153608873513	2295.9916401654
0	5019	409771.348998835337	2140.9708571155
0	5030	410434.516302449655	2001.3830776792
0	5037	410813.96214086565	1716.8085319921
0	5044	411614.054138492819	1732.4261189438
0	5057	412776.977316476432	2342.4610140268
0	5066	413526.292308792499	2422.718262719
0	5073	414339.872660860446	2367.1874333639
0	5082	414895.032927906167	2118.0556114297
0	5089	415264.789704373134	1738.4973955806
0	5098	415791.856784513248	1399.0217138082
0	5107	416667.776469374102	1711.3748188131
0	5116	417431.690278463092	1888.7951073702
0	5129	418485.953045776141	2072.6868767291
0	5136	418831.216946058002	1921.1109037511
0	5139	419299.390493240234	1571.2611256633
0	5156	420892.563797906069	2406.6107521299
0	5165	421590.508323954446	2205.0142340362
0	5174	422249.157366715399	2013.921444118
0	5179	422890.484816394774	1997.9210184887
0	5188	423550.619918480543	1960.1115945261
0	5197	423960.671080229832	1711.5137135144
0	5206	424957.393456902383	1883.6828107014
0	5215	425850.578664802043	1909.9260826595
0	5228	426659.356126701487	2154.2286909185
0	5235	427129.735657665906	1898.4928851016
0	5242	428132.871311204536	2135.0116780959
0	5255	429102.243855781881	2442.8877290804
0	5264	429645.69818107414	2327.5541197043
0	5271	430385.176435159547	2173.3670992311
0	5280	431085.39931559938	1983.1554598175
0	5287	431548.069473356036	1902.3712922819
0	5296	432182.321962248562	1792.6338175312
0	5305	432895.231067016748	1698.2754496392
0	5318	434182.926013972637	2374.2169255391
0	5325	434986.953975493115	2496.0175267886
0	5334	435655.097558023435	2314.5055723842
0	5345	436543.975922791314	2361.0499088187
0	5350	436913.011817727265	1867.7688530646
0	5359	437655.70446127097	1858.5434434935
0	5368	438420.746397692738	1876.7704749014
0	5379	439340.378271974651	2247.8316944093
0	5386	439711.451980518205	1719.2760821432
0	5397	440835.776022914826	2066.2171842065
0	5406	441493.193593388451	1845.6934546586
0	5413	441870.181893417639	1672.1886171028
0	5424	442984.649094985826	2130.1453059074
0	5433	443713.527191570057	2124.4774269406
0	5444	444737.830393295763	2352.2678573616
0	5449	445191.54934803958	2145.433537988
0	5462	446308.196340082241	2402.5825604796
0	5467	446720.115705812378	1982.2853125166
0	5478	447563.677023025258	2092.1445198823
0	5487	448334.637907426832	2026.4415673446
0	5498	449197.521809767959	2189.8432217538
0	5505	449850.812447397066	2223.5192350578
0	5512	450400.073471339447	1981.730558211
0	5525	451332.983733247993	2135.46192348
0	5532	451879.494256619391	1896.3952731807
0	5541	452670.206743944464	1948.0590126012
0	5548	453346.571467956556	2013.5877347086
0	5557	454005.797320185257	1873.7554722
0	5568	454831.57309326346	1947.6958452724
0	5575	455137.034232448814	1580.6007105857
0	5588	456186.107767419918	1803.6362435203
0	5593	456796.31587313491	1842.1504740603
0	5602	457407.065651658951	1885.4304542765
0	5615	458397.5045223255	2211.3967549056
0	5622	458954.300921643182	1888.8073530514
0	5633	459796.171830408304	2240.5995952897
0	5642	460673.046877747431	2275.5423554219
0	5647	461271.700912434637	2242.1419196762
0	5656	461907.030570600211	2110.8587401919
0	5667	462714.435967896163	2041.3890901487
0	5676	463497.148455446616	1994.8713982478
0	5685	463984.389979206056	1892.4503328279
0	5696	465037.556632049413	2080.9770551976
0	5703	465499.214371852608	1935.2502564434
0	5710	466076.645783102171	1924.7929940466
0	5719	467209.603140782596	2172.0465087332
0	5732	468105.182730406555	2334.9167852663
0	5741	468748.051152471485	2135.831112368
0	5748	469501.2439254206	2196.0912566632
0	5759	470433.278486318918	2328.0957559124
0	5768	471099.557325756209	2351.5061732847
0	5773	471625.338248815419	2060.3435563389
0	5782	472403.148006415027	1969.8695200961
0	5795	473267.201654054256	2167.644328298
0	5802	473753.963247919487	1778.0110575724
0	5809	474256.734991120206	1806.0046670493
0	5820	475058.593774773212	1791.392120719
0	5827	475540.030372934447	1496.141063422
0	5838	476293.370886286752	1729.1852787137
0	5845	476896.727201761709	1541.8793248013
0	5854	477277.045322489025	1533.2962837536
0	5863	477668.592630280213	1085.2137031965
0	5876	478855.533572891758	1859.2403836548
0	5883	479535.199920041518	2171.1834726389
0	5890	480468.951551383392	2360.1577799767
0	5901	481023.075464554162	2167.5418916624
0	5908	481470.354786096172	1753.7107945886
0	5917	482538.489867327766	1971.3570768479
0	5928	483664.052969869258	2341.9200451579
0	5935	484008.497047657179	1807.8641791362
0	5944	485054.332997091146	2004.2186741251
0	5957	485948.331498680668	2209.1605303343
0	5966	486816.271516168522	2383.1958975177
0	5971	487307.730312086674	2008.4342794027
0	5982	488268.224925594436	2319.8934269138
0	5989	488648.671342106568	1832.399825938
0	6000	489295.121106784823	1738.5029882658
0	6011	490330.402281973542	1907.5333095621
0	6016	490716.125508165018	1847.0734157134
0	6027	491556.487060105459	1825.6471019704
0	6034	492234.165192861141	1903.7629108876
0	6045	493426.750543992998	2302.1146443207
0	6052	493785.658964049103	1881.026931759
0	6063	494807.266687788101	2013.4281726088
0	6070	495460.510106245088	1929.2695638724
0	6081	496578.812206070902	2339.1650567763
0	6090	497349.875423731315	2267.2626261134
0	6097	497693.969818716901	1894.7502454743
0	6110	498964.507244154844	2385.5788917281
0	6117	499779.733170568976	2339.0712129883
0	6128	500458.910829573903	2384.4034696464
0	6133	501168.706391891498	2204.1991477367
0	6142	501603.93988117579	1779.0163569152
0	6155	502309.055385086719	1850.1445555128
0	6164	503166.198865044896	1930.1816511434
0	6171	503772.311611147631	1882.3255532887
0	6178	504080.870577553321	1771.8151924666
0	6187	505288.583472836797	2122.3846077919
0	6196	505934.636851586436	2159.3698002398
0	6205	506537.651266437058	1877.0249227993
0	6216	507695.163453603198	2174.170003552
0	6225	508593.651851126959	2254.6446010005
0	6234	509343.709703022649	2135.6244213413
0	6241	509983.233243785833	2074.123412976
0	6254	510737.516369763796	2018.0470325053
0	6261	511183.493104018305	1738.0852460861
0	6272	512017.666559759562	1819.2219941877
0	6277	512400.979105616023	1663.4627358522
0	6288	513266.286986460944	1910.4547819588
0	6299	514073.4094387852	2055.7428790256
0	6306	514586.760946596076	1954.1216460988
0	6313	515434.796007536386	2018.814359
0	6322	515758.498385315795	1685.0889465306
0	6331	516632.954323897173	1736.0273203813
0	6344	517984.633140172844	2336.7520184722
0	6349	518585.817857645487	2188.9245148748
0	6362	519681.136937253212	2532.0994659327
0	6371	520416.366886301001	2431.7337461282
0	6380	520780.818805424531	1916.1755469628
0	6389	521640.864131413435	1959.7271941602
0	6396	522321.178805083071	1904.8119187821
0	6405	523159.30888652805	2378.4900811035
0	6414	523723.993442952667	2083.1293115392
0	6423	524632.857431424816	2146.7542381492
0	6434	525475.852523837273	2147.0328636467
0	6439	525803.237711777945	1846.4274485596
0	6452	526830.316455708851	2116.563474806
0	6457	527146.516821300645	1670.6642974634
0	6466	527810.993126733263	1519.9862123933
0	6475	528743.335592513939	1913.0191368051
0	6488	529744.974160194432	2034.8235236015
0	6497	530373.579712864047	1963.2447229698
0	6504	531259.661680832541	2147.5564430002
0	6515	531943.863094132429	2198.888933938
0	6520	532382.388520985877	2008.8088081218
0	6533	533440.233155898786	2177.502670465
0	6542	534140.948424255512	2197.0853301231
0	6549	534613.787605147845	1876.5705137048
0	6560	535501.112865284122	2060.8797093853
0	6567	536126.197323622219	1985.2488993667
0	6576	536773.138360446355	2011.887542624
0	6583	537111.714218230954	1610.6013529468
0	6594	538270.272366609462	2013.569059968
0	6601	538665.879625920244	1739.5692357793
0	6612	539913.354449858927	2136.224669544
0	6623	540879.73274909895	2384.9972188007
0	6632	541432.853933097833	2095.6302650739
0	6641	542294.359862012827	2314.6186944097
0	6648	543143.077365635001	2263.3446165361
0	6657	543712.990637915247	2280.1367048174
0	6666	544507.8490883578	2213.489226345
0	6677	545389.016704168208	2234.3644601293
0	6686	545951.167849358209	2016.4643482771
0	6691	546275.594979571216	1586.8748594541
0	6700	547299.554582499005	1910.5378783308
0	6709	547779.673592979126	1828.5057436209
0	6720	548811.872492171861	2063.5359453969
0	6729	549413.426535017826	1806.6322378814
0	6736	550110.227992711627	1729.6086424962
0	6745	551022.697594296225	2149.6060444973
0	6758	551801.843817578667	2161.7669261992
0	6763	552381.556265149304	1841.795349028
0	6776	553373.69507155385	2089.1966056544
0	6785	554165.090089291373	2363.2462717127
0	6794	555009.160754503721	2323.2466765679
0	6799	555426.287243748122	2052.5921721943
0	6808	556134.476459166074	1969.3863698747
0	6817	556600.049194414208	1590.8884399105
0	6826	557606.903092889154	1979.6777622309
0	6837	558827.755035040939	2412.0576363523
0	6846	559616.757072089279	2328.0264740344
0	6853	560249.539448367471	2091.4873246104
0	6864	561448.591945320407	2469.5145013276
0	6871	561967.128284415269	2100.2326369286
0	6884	562828.280193032736	2153.4816748928
0	6891	563661.675075022543	2090.6835503876
0	6898	564044.364908896426	1860.2963645943
0	6907	564656.831308174917	1828.5511151422
0	6920	565936.834306642453	2270.0812993571
0	6925	566336.116480780805	1881.2212393619
0	6936	567147.213792381848	1973.9046016708
0	6943	567929.772201972122	1992.9378953297
0	6954	568593.66805544127	1871.6084732674
0	6961	569225.174796441609	1735.7067141216
0	6974	570502.204253012354	2387.5376962591
0	6981	571269.560746382962	2266.9385000132
0	6990	571943.654316477517	2324.6600664686
0	6997	572431.189410947303	1928.9851579349
0	7006	573311.988732218782	2018.0679830723
0	7019	574587.191227264742	2520.010323124
0	7026	575340.85024469536	2404.7287127003
0	7035	575998.314671404699	2254.6732967254
0	7042	576557.730312924871	1970.5390856601
0	7055	577799.653161037753	2317.5538198091
0	7064	578686.921450356061	2608.5089983419
0	7069	579135.278450511435	2228.3671955578
0	7078	579894.659125199581	2095.0059641618
0	7089	580636.40230000023	1949.4808496442
0	7096	581096.08601918448	1513.9381900895
0	7105	581947.47666735206	1774.4971526787
0	7114	582835.467106802429	1963.624689728
0	7123	583631.222069542895	2024.2906996049
0	7132	584550.329090561757	2255.5881945882
0	7145	585493.554012291173	2435.1462470368
0	7150	585820.082183741073	1930.69633618
0	7159	586828.861554293001	2226.1984609533
0	7168	587445.535963028709	1951.9819507375
0	7181	588684.914606530259	2441.2337967195
0	7190	589223.251002095679	2143.1259755976
0	7199	589934.179123817051	1983.4790945984
0	7206	590401.987977186257	1717.073370656
0	7213	591074.283145135308	1851.0321430396
0	7226	592156.638943310866	2222.4598194938
0	7235	592846.279112203086	2091.8759916443
0	7242	593654.229772416914	2235.975192301
0	7253	594366.742373071651	2210.1034297608
0	7258	594772.606810089241	1926.3276978862
0	7269	595710.62207738873	2022.0338359941
0	7276	596305.637830495875	1938.8954574242
0	7285	597106.193715753075	2019.520932762
0	7296	598135.33080588099	2162.4448985327
0	7303	598695.761010702741	1990.211802721
0	7316	599638.006831007121	2044.9260395486
0	7323	600226.252475241242	2046.9970612787
0	7330	600937.648751400454	2083.7409880478
0	7341	601990.998889412774	2352.9920584057
0	7348	602421.328687621324	1918.2573601138
0	7359	603501.169050391806	2116.8437621556
0	7366	603863.317476259588	1711.2806376535
0	7379	604691.737193288325	1839.6302701905
1	3199	260779.276234796284	354
1	3208	261185.774788353605	355
1	3219	262657.512678438811	356
1	3226	263080.611257907017	357
1	3235	263973.748022736995	358
1	3248	264821.777597581981	359
1	3255	265330.681374762221	360
1	3262	266011.005639564259	361
1	3271	266586.304028145982	362
1	3282	267713.807130279033	363
1	3293	268595.154988998561	364
1	3302	269434.906682046144	365
1	3309	270000.56291688235	366
1	3316	270559.854232287048	367
1	3325	271395.982954138903	368
1	3336	272252.054784446969	369
1	3347	273206.27399780789	370
1	3354	274028.462456585854	371
1	3365	274785.544276563466	372
1	3370	275331.653209403173	373
1	3381	276199.455048423276	374
1	3392	277130.274802492947	375
1	3401	277909.58196711728	376
1	3408	278306.45482577385	377
1	3419	279207.958507072196	378
1	3424	279623.925202712432	379
1	3437	280616.512714186699	380
1	3442	281228.601672314123	381
1	3451	281786.991259921358	382
1	3462	282537.724080914647	383
1	3469	283079.306371416912	384
1	3480	284114.588488731548	385
1	3487	284936.980186169982	386
1	3500	285947.764429450051	387
1	3507	286754.381681140528	388
1	3518	287495.416140323521	389
1	3523	288075.73862476276	390
1	3534	289066.409207414852	391
1	3543	289902.055627992393	392
1	3552	290541.821916215138	393
1	3561	291198.183447774516	394
1	3568	291839.19336874971	395
1	3579	292744.486455945315	396
1	3586	293050.73877344841	397
1	3597	294301.105243619549	398
1	3604	294699.135066708567	399
1	3615	295442.340214177984	400
1	3622	296290.511950152013	401
1	3633	296707.558444608021	402
1	3640	297307.688629115019	403
1	3649	297812.54663793372	404
1	3658	298724.222302716244	405
1	3671	299655.167438602093	406
1	3680	300352.140777837503	407
1	3689	301048.924582684431	408
1	3696	301494.811898237113	409
1	3707	302680.846121767554	410
1	3712	303258.741392428074	411
1	3721	303741.726410156134	412
1	3734	304509.797850251216	413
1	3743	305335.136890690792	414
1	3750	305954.531219461951	415
1	3761	306741.300647193584	416
1	3770	307341.02869662458	417
1	3775	307754.011523583922	418
1	3788	308955.534735694545	419
1	3795	309673.174512432906	420
1	3804	310216.701914509776	421
1	3815	311239.446105994302	422
1	3820	311727.67161587255	423
1	3831	312741.387258516643	424
1	3838	313061.585530545581	425
1	3851	313765.034966636468	426
1	3856	314330.568018229697	427
1	3865	314953.460095496867	428
1	3878	316064.283571997677	429
1	3887	316822.537610074525	430
1	3892	317594.224861823042	431
1	3903	318101.574517507126	432
1	3914	319417.121364874786	433
1	3923	319944.020244944861	434
1	3930	320499.037283705568	435
1	3937	321059.362867986804	436
1	3950	322323.669153638205	437
1	3959	323019.88573987039	438
1	3968	323772.939109336605	439
1	3977	324577.450464293381	440
1	3986	325402.395342523252	441
1	3993	325966.659954702502	442
1	4000	326300.446291454157	443
1	4009	327557.637490751242	444
1	4020	328601.711667794754	445
1	4031	329216.643935116028	446
1	4036	329766.368279512992	447
1	4045	330417.03109969387	448
1	4056	331463.168740645072	449
1	4065	332135.218678135446	450
1	4072	332531.774155749029	451
1	4083	333785.050748381785	452
1	4094	334689.745393535143	453
1	4099	335008.004989475033	454
1	4108	336280.752897681689	455
1	4117	336737.414166564142	456
1	4128	337912.589707877507	457
1	4135	338601.811437495074	458
1	4148	339661.570397671333	459
1	4155	340196.404653042576	460
1	4166	341280.333998473382	461
1	4175	341909.609408956042	462
1	4180	342245.782215474194	463
1	4193	343089.255454810357	464
1	4198	343648.994680400959	465
1	4211	344776.224264968208	466
1	4220	345473.621658096111	467
1	4225	345855.795955751112	468
1	4234	346630.575542198515	469
1	4243	347548.016526689775	470
1	4252	348283.041829476155	471
1	4263	348964.025365887232	472
1	4272	349720.03763113173	473
1	4283	350674.196855491049	474
1	4292	351288.224128726892	475
1	4301	352146.459050523139	476
1	4308	352790.539488662056	477
1	4319	353746.849053958453	478
1	4328	354516.777538508199	479
1	4333	354819.035464664943	480
1	4346	355777.185868006222	481
1	4355	356613.924480183073	482
1	4362	357356.9356271066	483
1	4371	358168.256992567354	484
1	4382	359047.388665890344	485
1	4387	359622.067078761779	486
1	4398	360453.154174843826	487
1	4407	361185.495637357258	488
1	4416	361575.745096849301	489
1	4427	362173.986333003291	490
1	4432	362474.869808647805	491
1	4443	363368.622405175143	492
1	4450	363897.15348654429	493
1	4461	364773.518374934816	494
1	4472	365274.207282811427	495
1	4477	365666.125471098372	496
1	4488	366744.391564931744	497
1	4495	367241.682580020302	498
1	4504	367846.303339535394	499
1	4513	368617.46423793959	500
1	4524	369590.333438571566	501
1	4531	370287.9536200315	502
1	4544	371231.024686060869	503
1	4551	371753.597625391581	504
1	4560	372500.9422243573	505
1	4569	373259.623563336232	506
1	4576	373668.516694894083	507
1	4589	375019.940895354398	508
1	4594	375550.385140674212	509
1	4605	376278.664962574862	510
1	4612	376692.023002775409	511
1	4623	377383.852028008573	512
1	4634	378050.469561154045	513
1	4639	378599.418317154072	514
1	4648	379266.441604262241	515
1	4659	380461.193171655782	516
1	4666	380941.324557876238	517
1	4675	381614.808220043802	518
1	4684	381980.708698695549	519
1	4693	382747.256485791901	520
1	4702	383457.082733977609	521
1	4711	384219.647380337143	522
1	4720	384822.384709026689	523
1	4731	385805.352489464009	524
1	4738	386411.192848579982	525
1	4749	387543.634652998322	526
1	4756	387888.173120515445	527
1	4769	389055.966642871523	528
1	4778	389715.886645903835	529
1	4787	390497.609994141409	530
1	4796	391223.312186496356	531
1	4801	391603.780490253144	532
1	4814	392891.073157265806	533
1	4823	393740.968821756565	534
1	4828	394076.558696385496	535
1	4841	395207.255416084104	536
1	4850	396054.55696745778	537
1	4859	396686.168992146873	538
1	4864	397206.462301639863	539
1	4877	398289.807676663646	540
1	4884	398777.694185217866	541
1	4893	399305.81350307914	542
1	4900	399919.319118093723	543
1	4913	401088.497824547837	544
1	4920	401881.790692079837	545
1	4931	402825.52436725239	546
1	4936	403239.162099408011	547
1	4947	404048.083791509296	548
1	4954	404767.875034455235	549
1	4963	405228.624502988558	550
1	4972	406006.234975531723	551
1	4981	406420.479268301305	552
1	4992	407534.999893885132	553
1	5003	408433.133224770453	554
1	5012	409097.153608873513	555
1	5019	409771.348998835337	556
1	5030	410434.516302449655	557
1	5037	410813.96214086565	558
1	5044	411614.054138492819	559
1	5057	412776.977316476432	560
1	5066	413526.292308792499	561
1	5073	414339.872660860446	562
1	5082	414895.032927906167	563
1	5089	415264.789704373134	564
1	5098	415791.856784513248	565
1	5107	416667.776469374102	566
1	5116	417431.690278463092	567
1	5129	418485.953045776141	568
1	5136	418831.216946058002	569
1	5139	419299.390493240234	570
1	5156	420892.563797906069	571
1	5165	421590.508323954446	572
1	5174	422249.157366715399	573
1	5179	422890.484816394774	574
1	5188	423550.619918480543	575
1	5197	423960.671080229832	576
1	5206	424957.393456902383	577
1	5215	425850.578664802043	578
1	5228	426659.356126701487	579
1	5235	427129.735657665906	580
1	5242	428132.871311204536	581
1	5255	429102.243855781881	582
1	5264	429645.69818107414	583
1	5271	430385.176435159547	584
1	5280	431085.39931559938	585
1	5287	431548.069473356036	586
1	5296	432182.321962248562	587
1	5305	432895.231067016748	588
1	5318	434182.926013972637	589
1	5325	434986.953975493115	590
1	5334	435655.097558023435	591
1	5345	436543.975922791314	592
1	5350	436913.011817727265	593
1	5359	437655.70446127097	594
1	5368	438420.746397692738	595
1	5379	439340.378271974651	596
1	5386	439711.451980518205	597
1	5397	440835.776022914826	598
1	5406	441493.193593388451	599
1	5413	441870.181893417639	600
1	5424	442984.649094985826	601
1	5433	443713.527191570057	602
1	5444	444737.830393295763	603
1	5449	445191.54934803958	604
1	5462	446308.196340082241	605
1	5467	446720.115705812378	606
1	5478	447563.677023025258	607
1	5487	448334.637907426832	608
1	5498	449197.521809767959	609
1	5505	449850.812447397066	610
1	5512	450400.073471339447	611
1	5525	451332.983733247993	612
1	5532	451879.494256619391	613
1	5541	452670.206743944464	614
1	5548	453346.571467956556	615
1	5557	454005.797320185257	616
1	5568	454831.57309326346	617
1	5575	455137.034232448814	618
1	5588	456186.107767419918	619
1	5593	456796.31587313491	620
1	5602	457407.065651658951	621
1	5615	458397.5045223255	622
1	5622	458954.300921643182	623
1	5633	459796.171830408304	624
1	5642	460673.046877747431	625
1	5647	461271.700912434637	626
1	5656	461907.030570600211	627
1	5667	462714.435967896163	628
1	5676	463497.148455446616	629
1	5685	463984.389979206056	630
1	5696	465037.556632049413	631
1	5703	465499.214371852608	632
1	5710	466076.645783102171	633
1	5719	467209.603140782596	634
1	5732	468105.182730406555	635
1	5741	468748.051152471485	636
1	5748	469501.2439254206	637
1	5759	470433.278486318918	638
1	5768	471099.557325756209	639
1	5773	471625.338248815419	640
1	5782	472403.148006415027	641
1	5795	473267.201654054256	642
1	5802	473753.963247919487	643
1	5809	474256.734991120206	644
1	5820	475058.593774773212	645
1	5827	475540.030372934447	646
1	5838	476293.370886286752	647
1	5845	476896.727201761709	648
1	5854	477277.045322489025	649
1	5863	477668.592630280213	650
1	5876	478855.533572891758	651
1	5883	479535.199920041518	652
1	5890	480468.951551383392	653
1	5901	481023.075464554162	654
1	5908	481470.354786096172	655
1	5917	482538.489867327766	656
1	5928	483664.052969869258	657
1	5935	484008.497047657179	658
1	5944	485054.332997091146	659
1	5957	485948.331498680668	660
1	5966	486816.271516168522	661
1	5971	487307.730312086674	662
1	5982	488268.224925594436	663
1	5989	488648.671342106568	664
1	6000	489295.121106784823	665
1	6011	490330.402281973542	666
1	6016	490716.125508165018	667
1	6027	491556.487060105459	668
1	6034	492234.165192861141	669
1	6045	493426.750543992998	670
1	6052	493785.658964049103	671
1	6063	494807.266687788101	672
1	6070	495460.510106245088	673
1	6081	496578.812206070902	674
1	6090	497349.875423731315	675
1	6097	497693.969818716901	676
1	6110	498964.507244154844	677
1	6117	499779.733170568976	678
1	6128	500458.910829573903	679
1	6133	501168.706391891498	680
1	6142	501603.93988117579	681
1	6155	502309.055385086719	682
1	6164	503166.198865044896	683
1	6171	503772.311611147631	684
1	6178	504080.870577553321	685
1	6187	505288.583472836797	686
1	6196	505934.636851586436	687
1	6205	506537.651266437058	688
1	6216	507695.163453603198	689
1	6225	508593.651851126959	690
1	6234	509343.709703022649	691
1	6241	509983.233243785833	692
1	6254	510737.516369763796	693
1	6261	511183.493104018305	694
1	6272	512017.666559759562	695
1	6277	512400.979105616023	696
1	6288	513266.286986460944	697
1	6299	514073.4094387852	698
1	6306	514586.760946596076	699
1	6313	515434.796007536386	700
1	6322	515758.498385315795	701
1	6331	516632.954323897173	702
1	6344	517984.633140172844	703
1	6349	518585.817857645487	704
1	6362	519681.136937253212	705
1	6371	520416.366886301001	706
1	6380	520780.818805424531	707
1	6389	521640.864131413435	708
1	6396	522321.178805083071	709
1	6405	523159.30888652805	710
1	6414	523723.993442952667	711
1	6423	524632.857431424816	712
1	6434	525475.852523837273	713
1	6439	525803.237711777945	714
1	6452	526830.316455708851	715
1	6457	527146.516821300645	716
1	6466	527810.993126733263	717
1	6475	528743.335592513939	718
1	6488	529744.974160194432	719
1	6497	530373.579712864047	720
1	6504	531259.661680832541	721
1	6515	531943.863094132429	722
1	6520	532382.388520985877	723
1	6533	533440.233155898786	724
1	6542	534140.948424255512	725
1	6549	534613.787605147845	726
1	6560	535501.112865284122	727
1	6567	536126.197323622219	728
1	6576	536773.138360446355	729
1	6583	537111.714218230954	730
1	6594	538270.272366609462	731
1	6601	538665.879625920244	732
1	6612	539913.354449858927	733
1	6623	540879.73274909895	734
1	6632	541432.853933097833	735
1	6641	542294.359862012827	736
1	6648	543143.077365635001	737
1	6657	543712.990637915247	738
1	6666	544507.8490883578	739
1	6677	545389.016704168208	740
1	6686	545951.167849358209	741
1	6691	546275.594979571216	742
1	6700	547299.554582499005	743
1	6709	547779.673592979126	744
1	6720	548811.872492171861	745
1	6729	549413.426535017826	746
1	6736	550110.227992711627	747
1	6745	551022.697594296225	748
1	6758	551801.843817578667	749
1	6763	552381.556265149304	750
1	6776	553373.69507155385	751
1	6785	554165.090089291373	752
1	6794	555009.160754503721	753
1	6799	555426.287243748122	754
1	6808	556134.476459166074	755
1	6817	556600.049194414208	756
1	6826	557606.903092889154	757
1	6837	558827.755035040939	758
1	6846	559616.757072089279	759
1	6853	560249.539448367471	760
1	6864	561448.591945320407	761
1	6871	561967.128284415269	762
1	6884	562828.280193032736	763
1	6891	563661.675075022543	764
1	6898	564044.364908896426	765
1	6907	564656.831308174917	766
1	6920	565936.834306642453	767
1	6925	566336.116480780805	768
1	6936	567147.213792381848	769
1	6943	567929.772201972122	770
1	6954	568593.66805544127	771
1	6961	569225.174796441609	772
1	6974	570502.204253012354	773
1	6981	571269.560746382962	774
1	6990	571943.654316477517	775
1	6997	572431.189410947303	776
1	7006	573311.988732218782	777
1	7019	574587.191227264742	778
1	7026	575340.85024469536	779
1	7035	575998.314671404699	780
1	7042	576557.730312924871	781
1	7055	577799.653161037753	782
1	7064	578686.921450356061	783
1	7069	579135.278450511435	784
1	7078	579894.659125199581	785
1	7089	580636.40230000023	786
1	7096	581096.08601918448	787
1	7105	581947.47666735206	788
1	7114	582835.467106802429	789
1	7123	583631.222069542895	790
1	7132	584550.329090561757	791
1	7145	585493.554012291173	792
1	7150	585820.082183741073	793
1	7159	586828.861554293001	794
1	7168	587445.535963028709	795
1	7181	588684.914606530259	796
1	7190	589223.251002095679	797
1	7199	589934.179123817051	798
1	7206	590401.987977186257	799
1	7213	591074.283145135308	800
1	7226	592156.638943310866	801
1	7235	592846.279112203086	802
1	7242	593654.229772416914	803
1	7253	594366.742373071651	804
1	7258	594772.606810089241	805
1	7269	595710.62207738873	806
1	7276	596305.637830495875	807
1	7285	597106.193715753075	808
1	7296	598135.33080588099	809
1	7303	598695.761010702741	810
1	7316	599638.006831007121	811
1	7323	600226.252475241242	812
1	7330	600937.648751400454	813
1	7341	601990.998889412774	814
1	7348	602421.328687621324	815
1	7359	603501.169050391806	816
1	7366	603863.317476259588	817
1	7379	604691.737193288325	818

