version 2
run Pipelined_3Teachers-84-20190105-10:57:37-24828
attr configname Pipelined_3Teachers
attr datetime 20190105-10:57:37
attr experiment Pipelined_3Teachers
attr inifile ../simulations/omnetpp.ini
attr iterationvars "$0=\"uniform\""
attr iterationvarsf uniform-
attr measurement "$0=\"uniform\""
attr network PipelinedExamSession
attr processid 24828
attr repetition 84
attr replication #84
attr resultdir results
attr runnumber 84
attr seedset 84
param **.teachersNumber 3
param **.answerTimeDistribution "\"uniform\""
param **.minUniform 300
param **.maxUniform 900
param **.scaleLognormal 6.2854
param **.shapeLognormal 0.4724

vector 0 PipelinedExamSession examinationTime:vector ETV
attr source examFinished
vector 1 PipelinedExamSession studentID:vector ETV
attr source student
0	3181	260306.032711872848	1582.1795229334
0	3192	261271.646961942333	1679.6589247417
0	3199	261584.422142012063	1558.3045925014
0	3208	262123.202887969109	1555.5940546095
0	3217	263257.744551636296	1851.0970730335
0	3230	264035.43881694788	2151.4096566942
0	3237	264798.484996240604	2113.7683785986
0	3244	265198.120856238547	1875.5330242217
0	3253	266016.118229599687	1980.6794126518
0	3264	267145.916442247125	2254.2211032473
0	3273	267649.607122549804	1902.3512503132
0	3280	268246.470894897374	1793.3663869277
0	3285	268822.26439816879	1640.8912391402
0	3298	269878.21176331492	1821.0797253996
0	3309	270634.344857744891	1796.8297954649
0	3318	271152.880390500668	1776.2469003908
0	3321	271606.177820451576	1501.6611426137
0	3336	272772.68488453703	1967.252320284
0	3343	273228.276946675051	1577.2385346238
0	3354	274365.40569900537	2317.9288007319
0	3365	275172.6822123863	2331.30057659
0	3370	275518.114370573332	1869.1080168821
0	3381	276350.444488506784	1955.9313531965
0	3392	277150.517251901348	1977.835039515
0	3399	277553.667883062755	1742.233464215
0	3402	277894.782289210727	1281.6124072764
0	3415	279226.018070848678	2075.5008189473
0	3428	280511.730230832493	2578.7392304745
0	3435	281013.481146516299	2182.6748943888
0	3442	281383.768273377812	1699.1704442538
0	3453	282002.540391823298	1490.8101609908
0	3460	282551.67183126325	1520.1847059187
0	3473	283463.702502474209	1846.4207618963
0	3478	283891.298216069137	1529.4678869192
0	3491	284742.045990284552	1941.7675520293
0	3498	285440.705079725032	1977.0025772508
0	3505	285984.55436588267	1908.0002313014
0	3518	287027.720081945902	2285.6740916613
0	3523	287668.27681339348	2143.9258812927
0	3532	288110.587354190668	1745.9688349161
0	3545	289162.973807333058	2135.2537253872
0	3552	289770.88892273607	1982.1864548139
0	3563	290538.609501393533	2198.6625102349
0	3570	290906.516376324019	1743.542568991
0	3581	291674.1134606302	1678.6966314074
0	3588	292368.633609591074	1830.0241081975
0	3597	293184.353141253836	2246.9307989348
0	3606	293764.783315546833	2090.6698549166
0	3615	294477.501317532755	1908.5813131649
0	3622	295021.033651242055	1782.2920211591
0	3633	295883.831875445343	1936.677384004
0	3644	296799.291355116314	2093.1056072004
0	3651	297470.984249794877	2081.2406273559
0	3658	297907.08856182175	1731.9235815201
0	3671	299303.126159543193	2503.8348044269
0	3680	300200.640025315828	2614.6629451308
0	3687	300710.732505144573	2304.5840732753
0	3698	301747.683486202754	2444.5573266596
0	3703	302095.365857239835	1894.725831924
0	3712	302993.005193118029	1991.7010788806
0	3721	303560.069127520569	1812.3856413178
0	3732	304523.562764469557	2061.6522360127
0	3741	305359.590397356101	2219.4011838175
0	3748	305694.580533402064	1920.3004181385
0	3757	306713.476559333526	2058.5962849204
0	3766	307228.946108836702	1674.8074442614
0	3777	308214.418863505147	1949.8790485784
0	3786	309076.465520169608	1975.9173279628
0	3797	310140.098944399528	2250.6542835385
0	3804	310581.221024785213	1898.6683594063
0	3813	311378.213919326685	2098.3093243092
0	3820	311891.22776007282	1751.1288156733
0	3831	312857.831594813637	2203.9131222758
0	3840	313664.600055338837	2219.3838363513
0	3847	314104.294219007738	1982.6423581224
0	3860	315019.291487289615	2018.5774776153
0	3869	315782.752988766901	2076.9227118697
0	3878	316579.022504529007	2158.7459527887
0	3883	317095.306316809751	2076.0148295201
0	3894	318117.463908204831	2334.7109194379
0	3903	318751.286477828421	2172.2639732994
0	3910	319354.41457545387	1883.2025554497
0	3923	320706.18892698551	2372.0708565786
0	3930	321138.335418747761	2210.7248784509
0	3941	321930.072464933642	2123.3448104002
0	3950	322771.510970871919	2065.3220438864
0	3955	323265.728746913397	1921.5789281297
0	3968	323934.694030741253	2004.6215658076
0	3977	324637.689001159766	1866.1780302878
0	3982	324984.097729856172	1409.1825103853
0	3993	326133.568928344199	2198.8748976029
0	4002	326816.595805529529	2178.9068043698
0	4009	327317.100319638873	1847.6517931558
0	4018	328531.770888855705	2277.7946258895
0	4027	328965.339660504857	2107.7081547584
0	4038	329607.084024092207	1866.9365040958
0	4045	330559.917810140203	1937.2145691421
0	4054	331553.705341648336	2296.4262859896
0	4063	332051.15361618812	2015.2898567263
0	4074	333133.402844890978	2326.4150711708
0	4083	333769.831905886557	2162.9787487909
0	4090	334220.705066202235	1793.3540916536
0	4101	335096.082183066782	1916.279405728
0	4108	335436.523473914739	1459.5959713217
0	4117	336345.437223650541	1898.0841871351
0	4128	337391.350099956643	2229.0975959972
0	4135	337780.231922445845	1918.3589634486
0	4146	338691.698494926122	2134.9286146928
0	4155	339455.976009462056	2045.1139298268
0	4164	340168.540267786038	2109.8502790555
0	4171	340560.632468014982	1743.3359880466
0	4184	341750.45309825803	2191.2396634463
0	4189	342182.95346209782	1978.548473306
0	4202	343296.941375266787	2325.2510659397
0	4209	343735.428340500247	1984.9752422422
0	4218	344948.961015231934	2347.0437590964
0	4225	345397.72206782366	2100.7806925569
0	4238	346506.498772697549	2351.5570198651
0	4243	346863.420241093289	1860.2833585348
0	4254	347964.199967868652	2093.1511979084
0	4261	348267.197716143008	1760.6989434455
0	4272	349293.734764074932	2157.4339249637
0	4281	349912.28693160231	1939.2731691711
0	4288	350520.338488463338	2087.5713848043
0	4301	351927.702699182581	2603.8594771642
0	4310	352742.000405816387	2568.9043334685
0	4315	353209.734681481521	2145.7806725521
0	4326	353879.133328143534	1951.430628961
0	4333	354518.245242582661	1776.2448367663
0	4344	355389.818203076747	2039.9267808069
0	4351	355874.087854195413	1696.8836161774
0	4364	356833.447642112177	1896.9795509242
0	4373	357720.737259183105	2165.2214511763
0	4380	358365.681644110035	2363.8022862375
0	4389	359283.375427220043	2449.9277851079
0	4398	359840.428541740429	2119.6912825573
0	4405	360560.677461186451	1995.9611941595
0	4414	361025.077628949685	1686.9453830179
0	4423	361518.147690966752	1389.3509942573
0	4432	362332.332657510441	1551.9685350358
0	4445	363212.398591591072	1735.1008633152
0	4454	364007.416922366273	2048.108234955
0	4463	364884.677466424209	2201.7983622383
0	4468	365451.464033871916	2239.0654422808
0	4481	366564.93759434673	2557.5206719805
0	4488	367104.176295921234	2219.498829497
0	4495	367720.376034965767	1972.0187338069
0	4504	368511.511342646582	1946.5737482999
0	4517	369668.028753390564	2272.163878195
0	4526	370510.411038156627	2377.5270135608
0	4533	371054.290394252194	2051.8157078885
0	4542	371615.357178775622	1947.3284253851
0	4551	372323.915514769061	1813.5044766124
0	4560	373025.606943201302	1848.6182923894
0	4569	373695.228105643793	2057.8018523287
0	4578	374533.019098732649	2100.7067228202
0	4587	375269.282664964004	2163.2422561292
0	4596	375935.038002999527	2007.5848035514
0	4603	376536.266017053304	1991.4763864595
0	4614	377668.144087353749	2256.6668686923
0	4625	378555.004284996567	2567.0624172315
0	4630	378972.560611786348	2132.2990158107
0	4639	379688.682031212402	2000.5573367234
0	4652	381060.681483009857	2505.6771980133
0	4659	381789.82949084605	2385.8054485638
0	4668	382272.825770918307	2081.5326706041
0	4679	383106.753158289965	2046.0716752801
0	4688	383700.39564161564	1909.8905583378
0	4693	384077.792325569342	1748.3605023008
0	4706	385173.933854280066	2067.1806959901
0	4711	385496.846287278485	1796.4506456628
0	4722	386529.970082407843	2246.3209906127
0	4731	387262.299278145682	2088.3654238656
0	4738	388069.69122109006	2153.2652682625
0	4747	388649.862506194066	1947.4351098295
0	4758	389704.955961043041	2242.9421673529
0	4769	390668.320053583038	2326.8142303918
0	4778	391102.075597783578	2001.7524670344
0	4783	391566.041097929729	1782.3908664286
0	4796	392571.881306218011	1903.561252635
0	4803	393145.677785435719	2043.6021876521
0	4810	393536.82335168126	1657.8060326166
0	4821	394290.553755406318	1718.6724491883
0	4828	394690.722278505591	1373.3290965669
0	4841	396073.588287876946	2317.9343495518
0	4846	396416.537152742994	2104.2016675696
0	4855	396949.272821238291	1765.2913467027
0	4864	397868.89304690997	1795.304759033
0	4875	399090.378727298258	2173.4408131801
0	4882	399762.820342741935	2042.6203544252
0	4893	400523.946886276854	2077.2621514276
0	4900	400921.944671776175	1575.9551106021
0	4911	401482.357391668513	1511.2011739053
0	4918	401940.944223571598	1354.7945756
0	4927	402536.334104184091	1463.3658025414
0	4936	403294.140674360126	1740.9629269503
0	4945	403983.392537618085	1744.73416619
0	4956	404630.123678874254	1881.1159711797
0	4965	405152.351176785334	1668.2461058255
0	4974	406043.615503935172	1925.9340081364
0	4985	407054.39284723255	2316.1929260474
0	4990	407524.157534446597	1994.2686048802
0	5003	408281.487593567028	2046.3857884984
0	5012	409076.585768396064	2022.1929211635
0	5021	409715.940136509045	1994.6664952207
0	5026	410200.014974037214	1918.5273804702
0	5039	411057.684563146933	1981.0987947509
0	5044	411614.48365417312	1898.5435176641
0	5053	412041.115387994825	1605.5522410199
0	5064	413180.74913243766	2123.0645692907
0	5075	414012.669819826289	2088.0949934945
0	5082	414662.212257133826	2181.5320612863
0	5091	415084.095255006134	1801.3141172938
0	5094	415461.14900233227	1448.479182506
0	5111	416599.410030059546	1916.8150579557
0	5118	417154.501163726702	1670.9124086425
0	5127	418004.54236487861	2075.7164731622
0	5136	418608.051373902738	2008.6413438432
0	5143	419002.742885705113	1657.0660545956
0	5156	420026.190119655832	1856.4321835991
0	5161	420376.035658456414	1684.0586047154
0	5170	421140.085908165231	1649.6302963234
0	5179	421738.823824748426	1712.6337050926
0	5190	422224.417243246018	1413.4516253136
0	5201	423414.483590936317	1977.3740001954
0	5206	424012.829622393503	2201.3279061299
0	5219	424934.859988186537	2243.4424134437
0	5224	425241.161042265623	1826.6774513293
0	5237	426304.590460052742	2244.2158351187
0	5242	426727.662360202549	1792.802372016
0	5251	427328.838984947679	1913.6995069217
0	5262	428458.043187484173	2153.4527274314
0	5269	429242.596749449178	2165.2236377355
0	5280	429876.996974414243	1950.0376421493
0	5289	430864.902385370834	2157.4863251299
0	5298	431566.253668069868	2087.7374391071
0	5309	432436.135292938008	2133.9852542616
0	5318	433201.898226840451	2067.8956874181
0	5327	433938.940450083494	2263.9674205799
0	5336	434698.019824828982	2261.884531891
0	5341	435040.819674544066	1838.9214477036
0	5352	436025.535210873961	2086.5947607905
0	5359	436570.762229058921	1872.7424042299
0	5372	437532.996313925863	2108.2774501294
0	5379	438050.792899495021	1828.492908692
0	5388	439039.010825660111	2202.7539561968
0	5399	439642.313572671295	2109.3172587454
0	5408	440448.770841909603	2072.6645410527
0	5415	441184.666810417578	2051.4161598869
0	5422	441980.696202954308	2338.382630283
0	5433	442837.26285235028	2388.4920104407
0	5440	443339.909113850475	2035.457116412
0	5449	444430.375162744924	2320.4827934504
0	5458	445060.350929014415	2094.5846634451
0	5467	446129.28741434592	2316.1847303621
0	5480	447098.88095590289	2553.4743298776
0	5487	447691.753539210216	2266.9947990216
0	5496	448505.077839503095	2218.1228719186
0	5503	449192.628276022181	2093.7473201193
0	5512	449793.535480136083	2020.967001887
0	5521	450600.251005031199	2094.0153302159
0	5532	451836.051005730436	2432.3507571593
0	5539	452276.16756297651	2141.9761128724
0	5548	452829.155894089521	1870.6044004764
0	5561	454082.266978779839	2234.3218670692
0	5566	454411.229672748627	1900.4313107114
0	5577	454865.696700755538	1625.4429226276
0	5588	455993.50889157507	1911.2419127952
0	5593	456497.762702358918	1999.0780428518
0	5604	457501.173994783343	2405.1571940538
0	5613	458347.245453111858	2353.7365615368
0	5620	458910.006645787539	2035.9999906272
0	5633	460049.48692303154	2435.3124568239
0	5638	460834.286956954779	2473.7941937987
0	5647	461335.053515620561	2075.12395964
0	5656	462125.649261754037	2076.1623387225
0	5665	462571.499801706553	1680.0860102288
0	5674	463218.410387076468	1710.2715450805
0	5687	464192.711068829553	1897.7426195517
0	5696	465026.717277104067	2123.8723147195
0	5703	465435.85875076245	1990.6196263153
0	5710	466207.425017841192	2014.7139490116
0	5721	466955.099160550194	1928.3818834461
0	5728	467614.26435490142	1993.4236394707
0	5741	468782.595468359099	2334.0223764069
0	5748	469509.964572731437	2477.9439759906
0	5757	470241.477152612091	2352.3099332582
0	5764	470795.446515083344	2012.8510467242
0	5775	471541.429449012533	1875.1720829867
0	5784	472341.202615806864	1982.6011180412
0	5791	472846.37216194536	1880.7499808259
0	5802	473589.802655065463	2041.6282099206
0	5809	474152.517404733257	1733.2644781563
0	5820	474794.667208381029	1690.1336180046
0	5827	475887.640073709222	2105.5580468383
0	5836	476273.889837367492	1837.5381384976
0	5845	477021.303090127217	1734.5718421508
0	5856	477911.846923129665	1884.5676573459
0	5863	478525.230573629992	1842.5545070786
0	5874	479431.680006533892	2030.730681913
0	5883	480108.564235316621	1892.2158289701
0	5892	480736.251260340245	1672.9250863194
0	5903	481811.690891766952	2207.8471763525
0	5908	482375.899651274116	1978.6167284008
0	5919	483315.589197026597	2321.2903184351
0	5926	483836.990535026448	2025.2996432595
0	5939	484867.865606211157	2184.5959856641
0	5944	485256.168761802868	1804.7478599008
0	5955	486088.983002537893	1958.0450885464
0	5964	486399.163239123331	1531.2976329122
0	5975	487518.21242105219	2129.8660492525
0	5984	488279.469190305131	2189.0880906489
0	5989	488648.099816450881	1907.9526118934
0	6000	489634.620646946165	2116.408225894
0	6007	490295.707045588675	2016.2378552835
0	6016	490832.377858227151	1654.9965244252
0	6029	492146.196727640959	2127.7788911015
0	6038	492763.877536822143	2260.1050433703
0	6045	493416.010343469712	2054.3114435859
0	6052	493838.97757502276	1692.7808473818
0	6063	494754.805728932875	1990.9281921107
0	6070	495407.777106715399	1906.4910847228
0	6079	496007.603323739054	1762.0795253199
0	6090	496785.478421486947	1827.7968239039
0	6101	497808.176393201607	2255.7325936854
0	6110	498607.729226024854	2462.5999039505
0	6117	499059.975372115183	2103.7661348004
0	6124	499713.742120005223	1905.5657268036
0	6135	500725.555776245925	2117.8265502211
0	6142	501448.332275776226	2152.1467442159
0	6153	502249.961080122772	2146.0460663773
0	6162	502882.426675222847	1910.6792944483
0	6173	503541.586317541111	1691.4193122648
0	6178	503842.549491534043	1523.5913828015
0	6187	504569.487333856556	1443.4032458346
0	6198	505662.511441390995	2120.9251238499
0	6209	506435.874251369421	2325.0403502025
0	6218	507181.435749912669	2189.8432396352
0	6223	507518.017481686582	1765.2575380169
0	6236	508490.270726289635	2054.3964749202
0	6245	509155.024308990722	1973.5885590781
0	6252	509684.91220325235	1839.2421478406
0	6261	510315.259073255619	1824.988346966
0	6270	510957.609370211175	1802.5850612205
0	6279	511619.374378630927	1855.8184220921
0	6288	512492.643502587488	2101.8203632906
0	6295	512804.739793064108	1646.1696042214
0	6304	513575.491062551773	1704.7202188522
0	6313	514144.210337474978	1577.7398211882
0	6322	514732.916215248441	1645.7270303741
0	6333	515841.045342246107	2029.1120007634
0	6342	516400.707507692313	1954.8792892601
0	6351	516985.810299916229	1720.1551903971
0	6360	517775.72062136609	1880.6145488285
0	6369	518647.22355958078	2175.8043254726
0	6380	519534.694164153225	2303.6749346182
0	6387	519861.316467868201	1810.4145563208
0	6398	520411.282554594837	1708.7835505139
0	6403	520786.011460097544	1251.3172959443
0	6414	521570.018535386808	1690.7220827881
0	6421	522023.650316800959	1612.3677622061
0	6432	522937.208910612427	1972.8601940442
0	6439	523774.964359542393	2000.1139904838
0	6450	524563.85903698396	2004.7654745635
0	6457	525068.608591379635	1674.639037298
0	6466	525806.169600784816	1917.3472416122
0	6477	526343.821135489308	1755.146261584
0	6488	527224.876651587003	1781.116804434
0	6493	527552.529334975445	1637.8859359771
0	6506	528647.116840817072	2300.9095044807
0	6515	529458.547830535137	2233.6711789481
0	6524	530234.994593728372	2220.9373306017
0	6533	530895.482144365126	2248.3653035481
0	6540	531377.855924516955	1919.3080939818
0	6549	532210.316284932235	1975.3216912039
0	6560	533063.469182420561	2167.9870380554
0	6565	533540.617447625885	1941.0695674829
0	6576	534248.756347177589	1762.2663913295
0	6583	534868.45668638129	1804.9875039607
0	6594	536174.490667507092	2403.3980894834
0	6601	536491.915618814568	1934.2528773006
0	6612	537539.666971284935	2164.1342459712
0	6623	538594.734521862159	2373.2917235233
0	6630	539048.484922014216	1975.0225620344
0	6637	539987.248305603901	2237.6028696075
0	6650	540819.111008942167	2224.37648708
0	6657	541250.612249504815	1977.4393418804
0	6666	542332.331560878123	2243.6615483835
0	6673	542733.055385761003	1913.9443768188
0	6682	543737.563927145715	2024.9371765181
0	6695	545032.972873561123	2600.038702134
0	6700	545333.008970646226	2068.2865115348
0	6709	545995.415001036639	1847.8635844309
0	6720	547256.138773961032	2223.1659003999
0	6727	547874.066370958502	1997.298552515
0	6740	548963.456169515887	2223.097269237
0	6749	549808.637466235125	2535.6727758888
0	6758	550316.925532277712	2225.7414115593
0	6763	550622.878185426855	1659.422015911
0	6774	551650.36656106826	1841.7290948331
0	6783	552517.234535096252	2200.3090028185
0	6790	553259.427624894345	2215.4420325067
0	6799	553803.424276225307	1898.668935243
0	6812	554980.430849455336	2229.0593439247
0	6817	555515.21963761192	2123.5930169933
0	6828	556151.727290824095	2062.5950270332
0	6835	556783.503434015477	1803.0725845601
0	6848	557565.252340910996	1901.3005957939
0	6855	557975.528438575606	1545.4083414283
0	6864	558475.671658571849	1342.4958962481
0	6873	559139.727781293954	1574.475440383
0	6882	559853.772087022703	1814.3443305977
0	6891	560559.074571915012	2041.5035590064
0	6902	561550.72007928979	2397.2144729923
0	6909	562337.088843947317	2378.1424492132
0	6918	563112.079365039285	2395.6726608798
0	6925	563588.188179815229	2037.4681005254
0	6934	564269.351076101925	1911.2241609022
0	6945	565339.216388482642	2124.9508196488
0	6952	565658.110234094825	1665.7851762604
0	6963	566842.36343856905	2110.9087695368
0	6972	567479.243515245657	1855.6065485347
0	6979	568135.640793805983	1923.0582868215
0	6990	568935.206306213554	1881.1025627889
0	6997	569478.010337892961	1867.2860506922
0	7006	570568.196564214346	2126.4767343644
0	7017	571269.203072274145	1955.6549303234
0	7024	571803.61937955026	1744.3603950553
0	7033	572472.898431122345	1591.7278375011
0	7044	573464.889180986253	2030.9683510568
0	7051	574112.515912810383	1990.5827149283
0	7064	574694.906810810831	1729.205696471
0	7073	575452.840000810143	1946.3405970018
0	7080	576095.94816165049	1953.9489174262
0	7087	576678.922784607898	1984.0159737971
0	7096	577139.576037833509	1686.7360370234
0	7105	577769.449959928212	1654.9397064373
0	7116	579038.306825654623	2220.0482720509
0	7125	579425.148151628715	1828.7784776185
0	7134	580297.039811220062	2148.5239307396
0	7141	580708.395385555965	1668.8512053341
0	7152	581579.769525490743	1865.1191243436
0	7159	581991.323194652838	1585.1565190125
0	7172	583000.166441034567	2117.3283318523
0	7177	583443.323311535683	1814.5107604098
0	7186	584357.445890083951	1920.4162922222
0	7195	584787.570436578286	1787.4039955437
0	7206	585950.119720073458	2149.0502822679
0	7217	586832.483647065278	2275.9375875816
0	7222	587195.755584212061	1979.3756836094
0	7231	587905.26398671795	1904.7811535653
0	7240	588404.246967192781	1571.7633201275
0	7253	589185.688881995198	1891.861910373
0	7258	589615.304758865428	1427.6401159354
0	7267	590413.249903963921	1848.6175838392
0	7276	591071.884034900037	1886.1951529048
0	7285	592198.121062573088	2184.6170738339
0	7296	592820.443346025464	2053.2377325464
0	7307	593337.645678548184	1675.9497368708
0	7314	593845.492056012195	1483.2348729484
0	7323	594779.35244869445	1925.1545662992
0	7330	595369.833362381947	2032.1876838338
0	7343	596142.684637662065	1966.815982433
0	7348	596520.832039229614	1721.8303576112
0	7361	597688.821007590783	2053.095723968
0	7370	598262.658291729209	2119.9736540671
0	7377	598933.167293155608	1894.6919994894
0	7388	599768.288759468166	2079.4677518774
0	7397	600638.853535708083	2376.1952439789
0	7404	601321.391255781098	2356.827761326
0	7415	602203.735978575467	2435.4472191073
0	7424	602778.89699195516	2140.0434562471
0	7429	603110.469842841892	1730.2453722339
0	7438	603914.364777132912	1710.6287985574
0	7447	604611.191144306256	1832.2941523511
1	3181	260306.032711872848	352
1	3192	261271.646961942333	353
1	3199	261584.422142012063	354
1	3208	262123.202887969109	355
1	3217	263257.744551636296	356
1	3230	264035.43881694788	357
1	3237	264798.484996240604	358
1	3244	265198.120856238547	359
1	3253	266016.118229599687	360
1	3264	267145.916442247125	361
1	3273	267649.607122549804	362
1	3280	268246.470894897374	363
1	3285	268822.26439816879	364
1	3298	269878.21176331492	365
1	3309	270634.344857744891	366
1	3318	271152.880390500668	367
1	3321	271606.177820451576	368
1	3336	272772.68488453703	369
1	3343	273228.276946675051	370
1	3354	274365.40569900537	371
1	3365	275172.6822123863	372
1	3370	275518.114370573332	373
1	3381	276350.444488506784	374
1	3392	277150.517251901348	375
1	3399	277553.667883062755	376
1	3402	277894.782289210727	377
1	3415	279226.018070848678	378
1	3428	280511.730230832493	379
1	3435	281013.481146516299	380
1	3442	281383.768273377812	381
1	3453	282002.540391823298	382
1	3460	282551.67183126325	383
1	3473	283463.702502474209	384
1	3478	283891.298216069137	385
1	3491	284742.045990284552	386
1	3498	285440.705079725032	387
1	3505	285984.55436588267	388
1	3518	287027.720081945902	389
1	3523	287668.27681339348	390
1	3532	288110.587354190668	391
1	3545	289162.973807333058	392
1	3552	289770.88892273607	393
1	3563	290538.609501393533	394
1	3570	290906.516376324019	395
1	3581	291674.1134606302	396
1	3588	292368.633609591074	397
1	3597	293184.353141253836	398
1	3606	293764.783315546833	399
1	3615	294477.501317532755	400
1	3622	295021.033651242055	401
1	3633	295883.831875445343	402
1	3644	296799.291355116314	403
1	3651	297470.984249794877	404
1	3658	297907.08856182175	405
1	3671	299303.126159543193	406
1	3680	300200.640025315828	407
1	3687	300710.732505144573	408
1	3698	301747.683486202754	409
1	3703	302095.365857239835	410
1	3712	302993.005193118029	411
1	3721	303560.069127520569	412
1	3732	304523.562764469557	413
1	3741	305359.590397356101	414
1	3748	305694.580533402064	415
1	3757	306713.476559333526	416
1	3766	307228.946108836702	417
1	3777	308214.418863505147	418
1	3786	309076.465520169608	419
1	3797	310140.098944399528	420
1	3804	310581.221024785213	421
1	3813	311378.213919326685	422
1	3820	311891.22776007282	423
1	3831	312857.831594813637	424
1	3840	313664.600055338837	425
1	3847	314104.294219007738	426
1	3860	315019.291487289615	427
1	3869	315782.752988766901	428
1	3878	316579.022504529007	429
1	3883	317095.306316809751	430
1	3894	318117.463908204831	431
1	3903	318751.286477828421	432
1	3910	319354.41457545387	433
1	3923	320706.18892698551	434
1	3930	321138.335418747761	435
1	3941	321930.072464933642	436
1	3950	322771.510970871919	437
1	3955	323265.728746913397	438
1	3968	323934.694030741253	439
1	3977	324637.689001159766	440
1	3982	324984.097729856172	441
1	3993	326133.568928344199	442
1	4002	326816.595805529529	443
1	4009	327317.100319638873	444
1	4018	328531.770888855705	445
1	4027	328965.339660504857	446
1	4038	329607.084024092207	447
1	4045	330559.917810140203	448
1	4054	331553.705341648336	449
1	4063	332051.15361618812	450
1	4074	333133.402844890978	451
1	4083	333769.831905886557	452
1	4090	334220.705066202235	453
1	4101	335096.082183066782	454
1	4108	335436.523473914739	455
1	4117	336345.437223650541	456
1	4128	337391.350099956643	457
1	4135	337780.231922445845	458
1	4146	338691.698494926122	459
1	4155	339455.976009462056	460
1	4164	340168.540267786038	461
1	4171	340560.632468014982	462
1	4184	341750.45309825803	463
1	4189	342182.95346209782	464
1	4202	343296.941375266787	465
1	4209	343735.428340500247	466
1	4218	344948.961015231934	467
1	4225	345397.72206782366	468
1	4238	346506.498772697549	469
1	4243	346863.420241093289	470
1	4254	347964.199967868652	471
1	4261	348267.197716143008	472
1	4272	349293.734764074932	473
1	4281	349912.28693160231	474
1	4288	350520.338488463338	475
1	4301	351927.702699182581	476
1	4310	352742.000405816387	477
1	4315	353209.734681481521	478
1	4326	353879.133328143534	479
1	4333	354518.245242582661	480
1	4344	355389.818203076747	481
1	4351	355874.087854195413	482
1	4364	356833.447642112177	483
1	4373	357720.737259183105	484
1	4380	358365.681644110035	485
1	4389	359283.375427220043	486
1	4398	359840.428541740429	487
1	4405	360560.677461186451	488
1	4414	361025.077628949685	489
1	4423	361518.147690966752	490
1	4432	362332.332657510441	491
1	4445	363212.398591591072	492
1	4454	364007.416922366273	493
1	4463	364884.677466424209	494
1	4468	365451.464033871916	495
1	4481	366564.93759434673	496
1	4488	367104.176295921234	497
1	4495	367720.376034965767	498
1	4504	368511.511342646582	499
1	4517	369668.028753390564	500
1	4526	370510.411038156627	501
1	4533	371054.290394252194	502
1	4542	371615.357178775622	503
1	4551	372323.915514769061	504
1	4560	373025.606943201302	505
1	4569	373695.228105643793	506
1	4578	374533.019098732649	507
1	4587	375269.282664964004	508
1	4596	375935.038002999527	509
1	4603	376536.266017053304	510
1	4614	377668.144087353749	511
1	4625	378555.004284996567	512
1	4630	378972.560611786348	513
1	4639	379688.682031212402	514
1	4652	381060.681483009857	515
1	4659	381789.82949084605	516
1	4668	382272.825770918307	517
1	4679	383106.753158289965	518
1	4688	383700.39564161564	519
1	4693	384077.792325569342	520
1	4706	385173.933854280066	521
1	4711	385496.846287278485	522
1	4722	386529.970082407843	523
1	4731	387262.299278145682	524
1	4738	388069.69122109006	525
1	4747	388649.862506194066	526
1	4758	389704.955961043041	527
1	4769	390668.320053583038	528
1	4778	391102.075597783578	529
1	4783	391566.041097929729	530
1	4796	392571.881306218011	531
1	4803	393145.677785435719	532
1	4810	393536.82335168126	533
1	4821	394290.553755406318	534
1	4828	394690.722278505591	535
1	4841	396073.588287876946	536
1	4846	396416.537152742994	537
1	4855	396949.272821238291	538
1	4864	397868.89304690997	539
1	4875	399090.378727298258	540
1	4882	399762.820342741935	541
1	4893	400523.946886276854	542
1	4900	400921.944671776175	543
1	4911	401482.357391668513	544
1	4918	401940.944223571598	545
1	4927	402536.334104184091	546
1	4936	403294.140674360126	547
1	4945	403983.392537618085	548
1	4956	404630.123678874254	549
1	4965	405152.351176785334	550
1	4974	406043.615503935172	551
1	4985	407054.39284723255	552
1	4990	407524.157534446597	553
1	5003	408281.487593567028	554
1	5012	409076.585768396064	555
1	5021	409715.940136509045	556
1	5026	410200.014974037214	557
1	5039	411057.684563146933	558
1	5044	411614.48365417312	559
1	5053	412041.115387994825	560
1	5064	413180.74913243766	561
1	5075	414012.669819826289	562
1	5082	414662.212257133826	563
1	5091	415084.095255006134	564
1	5094	415461.14900233227	565
1	5111	416599.410030059546	566
1	5118	417154.501163726702	567
1	5127	418004.54236487861	568
1	5136	418608.051373902738	569
1	5143	419002.742885705113	570
1	5156	420026.190119655832	571
1	5161	420376.035658456414	572
1	5170	421140.085908165231	573
1	5179	421738.823824748426	574
1	5190	422224.417243246018	575
1	5201	423414.483590936317	576
1	5206	424012.829622393503	577
1	5219	424934.859988186537	578
1	5224	425241.161042265623	579
1	5237	426304.590460052742	580
1	5242	426727.662360202549	581
1	5251	427328.838984947679	582
1	5262	428458.043187484173	583
1	5269	429242.596749449178	584
1	5280	429876.996974414243	585
1	5289	430864.902385370834	586
1	5298	431566.253668069868	587
1	5309	432436.135292938008	588
1	5318	433201.898226840451	589
1	5327	433938.940450083494	590
1	5336	434698.019824828982	591
1	5341	435040.819674544066	592
1	5352	436025.535210873961	593
1	5359	436570.762229058921	594
1	5372	437532.996313925863	595
1	5379	438050.792899495021	596
1	5388	439039.010825660111	597
1	5399	439642.313572671295	598
1	5408	440448.770841909603	599
1	5415	441184.666810417578	600
1	5422	441980.696202954308	601
1	5433	442837.26285235028	602
1	5440	443339.909113850475	603
1	5449	444430.375162744924	604
1	5458	445060.350929014415	605
1	5467	446129.28741434592	606
1	5480	447098.88095590289	607
1	5487	447691.753539210216	608
1	5496	448505.077839503095	609
1	5503	449192.628276022181	610
1	5512	449793.535480136083	611
1	5521	450600.251005031199	612
1	5532	451836.051005730436	613
1	5539	452276.16756297651	614
1	5548	452829.155894089521	615
1	5561	454082.266978779839	616
1	5566	454411.229672748627	617
1	5577	454865.696700755538	618
1	5588	455993.50889157507	619
1	5593	456497.762702358918	620
1	5604	457501.173994783343	621
1	5613	458347.245453111858	622
1	5620	458910.006645787539	623
1	5633	460049.48692303154	624
1	5638	460834.286956954779	625
1	5647	461335.053515620561	626
1	5656	462125.649261754037	627
1	5665	462571.499801706553	628
1	5674	463218.410387076468	629
1	5687	464192.711068829553	630
1	5696	465026.717277104067	631
1	5703	465435.85875076245	632
1	5710	466207.425017841192	633
1	5721	466955.099160550194	634
1	5728	467614.26435490142	635
1	5741	468782.595468359099	636
1	5748	469509.964572731437	637
1	5757	470241.477152612091	638
1	5764	470795.446515083344	639
1	5775	471541.429449012533	640
1	5784	472341.202615806864	641
1	5791	472846.37216194536	642
1	5802	473589.802655065463	643
1	5809	474152.517404733257	644
1	5820	474794.667208381029	645
1	5827	475887.640073709222	646
1	5836	476273.889837367492	647
1	5845	477021.303090127217	648
1	5856	477911.846923129665	649
1	5863	478525.230573629992	650
1	5874	479431.680006533892	651
1	5883	480108.564235316621	652
1	5892	480736.251260340245	653
1	5903	481811.690891766952	654
1	5908	482375.899651274116	655
1	5919	483315.589197026597	656
1	5926	483836.990535026448	657
1	5939	484867.865606211157	658
1	5944	485256.168761802868	659
1	5955	486088.983002537893	660
1	5964	486399.163239123331	661
1	5975	487518.21242105219	662
1	5984	488279.469190305131	663
1	5989	488648.099816450881	664
1	6000	489634.620646946165	665
1	6007	490295.707045588675	666
1	6016	490832.377858227151	667
1	6029	492146.196727640959	668
1	6038	492763.877536822143	669
1	6045	493416.010343469712	670
1	6052	493838.97757502276	671
1	6063	494754.805728932875	672
1	6070	495407.777106715399	673
1	6079	496007.603323739054	674
1	6090	496785.478421486947	675
1	6101	497808.176393201607	676
1	6110	498607.729226024854	677
1	6117	499059.975372115183	678
1	6124	499713.742120005223	679
1	6135	500725.555776245925	680
1	6142	501448.332275776226	681
1	6153	502249.961080122772	682
1	6162	502882.426675222847	683
1	6173	503541.586317541111	684
1	6178	503842.549491534043	685
1	6187	504569.487333856556	686
1	6198	505662.511441390995	687
1	6209	506435.874251369421	688
1	6218	507181.435749912669	689
1	6223	507518.017481686582	690
1	6236	508490.270726289635	691
1	6245	509155.024308990722	692
1	6252	509684.91220325235	693
1	6261	510315.259073255619	694
1	6270	510957.609370211175	695
1	6279	511619.374378630927	696
1	6288	512492.643502587488	697
1	6295	512804.739793064108	698
1	6304	513575.491062551773	699
1	6313	514144.210337474978	700
1	6322	514732.916215248441	701
1	6333	515841.045342246107	702
1	6342	516400.707507692313	703
1	6351	516985.810299916229	704
1	6360	517775.72062136609	705
1	6369	518647.22355958078	706
1	6380	519534.694164153225	707
1	6387	519861.316467868201	708
1	6398	520411.282554594837	709
1	6403	520786.011460097544	710
1	6414	521570.018535386808	711
1	6421	522023.650316800959	712
1	6432	522937.208910612427	713
1	6439	523774.964359542393	714
1	6450	524563.85903698396	715
1	6457	525068.608591379635	716
1	6466	525806.169600784816	717
1	6477	526343.821135489308	718
1	6488	527224.876651587003	719
1	6493	527552.529334975445	720
1	6506	528647.116840817072	721
1	6515	529458.547830535137	722
1	6524	530234.994593728372	723
1	6533	530895.482144365126	724
1	6540	531377.855924516955	725
1	6549	532210.316284932235	726
1	6560	533063.469182420561	727
1	6565	533540.617447625885	728
1	6576	534248.756347177589	729
1	6583	534868.45668638129	730
1	6594	536174.490667507092	731
1	6601	536491.915618814568	732
1	6612	537539.666971284935	733
1	6623	538594.734521862159	734
1	6630	539048.484922014216	735
1	6637	539987.248305603901	736
1	6650	540819.111008942167	737
1	6657	541250.612249504815	738
1	6666	542332.331560878123	739
1	6673	542733.055385761003	740
1	6682	543737.563927145715	741
1	6695	545032.972873561123	742
1	6700	545333.008970646226	743
1	6709	545995.415001036639	744
1	6720	547256.138773961032	745
1	6727	547874.066370958502	746
1	6740	548963.456169515887	747
1	6749	549808.637466235125	748
1	6758	550316.925532277712	749
1	6763	550622.878185426855	750
1	6774	551650.36656106826	751
1	6783	552517.234535096252	752
1	6790	553259.427624894345	753
1	6799	553803.424276225307	754
1	6812	554980.430849455336	755
1	6817	555515.21963761192	756
1	6828	556151.727290824095	757
1	6835	556783.503434015477	758
1	6848	557565.252340910996	759
1	6855	557975.528438575606	760
1	6864	558475.671658571849	761
1	6873	559139.727781293954	762
1	6882	559853.772087022703	763
1	6891	560559.074571915012	764
1	6902	561550.72007928979	765
1	6909	562337.088843947317	766
1	6918	563112.079365039285	767
1	6925	563588.188179815229	768
1	6934	564269.351076101925	769
1	6945	565339.216388482642	770
1	6952	565658.110234094825	771
1	6963	566842.36343856905	772
1	6972	567479.243515245657	773
1	6979	568135.640793805983	774
1	6990	568935.206306213554	775
1	6997	569478.010337892961	776
1	7006	570568.196564214346	777
1	7017	571269.203072274145	778
1	7024	571803.61937955026	779
1	7033	572472.898431122345	780
1	7044	573464.889180986253	781
1	7051	574112.515912810383	782
1	7064	574694.906810810831	783
1	7073	575452.840000810143	784
1	7080	576095.94816165049	785
1	7087	576678.922784607898	786
1	7096	577139.576037833509	787
1	7105	577769.449959928212	788
1	7116	579038.306825654623	789
1	7125	579425.148151628715	790
1	7134	580297.039811220062	791
1	7141	580708.395385555965	792
1	7152	581579.769525490743	793
1	7159	581991.323194652838	794
1	7172	583000.166441034567	795
1	7177	583443.323311535683	796
1	7186	584357.445890083951	797
1	7195	584787.570436578286	798
1	7206	585950.119720073458	799
1	7217	586832.483647065278	800
1	7222	587195.755584212061	801
1	7231	587905.26398671795	802
1	7240	588404.246967192781	803
1	7253	589185.688881995198	804
1	7258	589615.304758865428	805
1	7267	590413.249903963921	806
1	7276	591071.884034900037	807
1	7285	592198.121062573088	808
1	7296	592820.443346025464	809
1	7307	593337.645678548184	810
1	7314	593845.492056012195	811
1	7323	594779.35244869445	812
1	7330	595369.833362381947	813
1	7343	596142.684637662065	814
1	7348	596520.832039229614	815
1	7361	597688.821007590783	816
1	7370	598262.658291729209	817
1	7377	598933.167293155608	818
1	7388	599768.288759468166	819
1	7397	600638.853535708083	820
1	7404	601321.391255781098	821
1	7415	602203.735978575467	822
1	7424	602778.89699195516	823
1	7429	603110.469842841892	824
1	7438	603914.364777132912	825
1	7447	604611.191144306256	826

