version 2
run Pipelined_3Teachers-70-20190105-10:57:33-18816
attr configname Pipelined_3Teachers
attr datetime 20190105-10:57:33
attr experiment Pipelined_3Teachers
attr inifile ../simulations/omnetpp.ini
attr iterationvars "$0=\"uniform\""
attr iterationvarsf uniform-
attr measurement "$0=\"uniform\""
attr network PipelinedExamSession
attr processid 18816
attr repetition 70
attr replication #70
attr resultdir results
attr runnumber 70
attr seedset 70
param **.teachersNumber 3
param **.answerTimeDistribution "\"uniform\""
param **.minUniform 300
param **.maxUniform 900
param **.scaleLognormal 6.2854
param **.shapeLognormal 0.4724

vector 0 PipelinedExamSession examinationTime:vector ETV
attr source examFinished
vector 1 PipelinedExamSession studentID:vector ETV
attr source student
0	3201	260077.740099001689	2417.1074410435
0	3208	260407.965280674411	1872.9072775226
0	3217	261317.153449589399	1959.0671011247
0	3230	262290.014078607795	2207.6083875261
0	3235	262599.465492367757	1858.7876911741
0	3246	263587.060288712395	1992.1179869212
0	3253	264130.505899200228	1840.4918205924
0	3262	264927.898429753271	1908.9234537911
0	3275	265861.634424235684	2084.2226272915
0	3280	266412.943949829799	2098.1109580491
0	3289	267211.432742653427	2246.5134030674
0	3298	267654.233555635449	1792.5991313998
0	3307	268427.874194132177	1677.103068307
0	3320	269632.132518757146	2041.5277817287
0	3329	270178.19452174009	2147.7461423725
0	3336	270968.127417331573	2212.2527344152
0	3343	271530.543982191023	1898.4114634339
0	3356	272544.158658245589	2365.9641365055
0	3363	272992.512830067437	1970.7914770581
0	3370	273418.365576770168	1534.9934385158
0	3381	274355.618558591243	1811.4599003457
0	3392	275261.23293726706	1928.4922444727
0	3397	275622.460368974144	1786.3223198801
0	3410	276696.477310359487	2325.9981750045
0	3419	277550.040963990623	2288.8080267236
0	3428	278226.060708705345	2425.6062640809
0	3435	278617.826684983456	1921.349374624
0	3442	279268.597864173362	1718.5569001827
0	3451	279900.123537937189	1674.0628292318
0	3460	281206.684182817126	2329.5924901497
0	3473	281791.635944321761	2052.3939014878
0	3480	282492.6840172615	1996.9974000938
0	3487	283010.430519282828	1655.7226565201
0	3496	283888.877836475159	2097.2418921534
0	3505	284694.266716903086	2013.2534002885
0	3514	285609.33531713673	2177.201511059
0	3527	286442.311692796658	2263.3968874812
0	3532	286838.210139842714	1851.2340435293
0	3541	287546.549811121087	1697.5407302845
0	3550	288247.19904488885	1804.8873520922
0	3559	289063.291844492789	1790.1572532021
0	3568	289816.574964439507	1829.2503020726
0	3581	291027.375140134257	2148.5984599683
0	3586	291349.329629866418	1896.78112166
0	3595	292023.397733364266	1686.8555160239
0	3608	292940.676782839012	1913.3016427048
0	3617	293779.357498046023	2163.5310537647
0	3626	294596.719223214326	2255.670463806
0	3633	295154.461583588285	2213.7848007493
0	3642	296054.943585488958	2275.5860874429
0	3653	296622.45474122466	2025.7355180103
0	3660	297089.753417763872	1660.0462411065
0	3671	297900.27230260895	1792.3795836512
0	3678	298623.115791007889	2000.6610497832
0	3689	299360.794859658939	2164.3639942165
0	3698	300192.756004119304	2292.4837015104
0	3703	300520.860718516645	1745.2021603938
0	3712	301411.766242794704	2050.9713831358
0	3723	301948.239322146413	1755.4833180271
0	3730	302532.692008791504	1544.6543463506
0	3743	303812.828590907169	2201.9724669401
0	3750	304172.444418864337	1941.6226934642
0	3759	305029.560479242368	1907.4094222393
0	3766	305728.700217185555	1915.8716262784
0	3777	306677.427996927886	2312.2418231796
0	3788	307712.558452505632	2537.2952822596
0	3795	308344.717488158508	2279.6106160618
0	3806	309221.075383946313	2343.4029940981
0	3813	309725.104855047552	2012.5464025419
0	3822	310138.255012733876	1632.6651171315
0	3833	311217.430760152652	1996.3553762063
0	3840	311721.430507348864	1935.4790307116
0	3849	312874.925732100396	2464.495603228
0	3856	313358.848018711446	2141.4172585588
0	3867	314389.941927837222	2276.2025986332
0	3874	314964.322961401208	1985.3749633301
0	3885	315977.346246410175	2111.5857687313
0	3892	316723.826678423225	2306.0541005339
0	3905	317622.669677529498	2383.4303533193
0	3914	318178.141620196416	2043.4159409255
0	3923	319022.87979209797	2049.3467930239
0	3932	319792.930374015137	2170.2606964856
0	3939	320181.969496468096	2003.8278762717
0	3946	320657.281322032227	1634.4015299343
0	3955	321452.166313631474	1659.2359396163
0	3968	322465.872147213683	2189.0929833055
0	3977	323365.061012282983	2251.9233249128
0	3986	324127.395632956192	2483.4248256404
0	3991	324531.426358921468	2065.5542117078
0	4002	325487.818880751744	2122.7578684688
0	4013	326316.135399509236	2188.739766553
0	4018	326646.123227057993	1909.7961757332
0	4031	327557.870516460404	1969.9561389629
0	4038	328244.465230498478	1928.3298309892
0	4045	328630.789436073989	1834.8321238998
0	4056	329522.102536121399	1964.232019661
0	4065	330294.194399658607	1925.2051992808
0	4074	330906.799722136946	1971.8956912402
0	4083	331763.004275830479	2082.7689693309
0	4090	332601.656481111439	2285.3854943533
0	4099	333400.352417584526	2191.266894713
0	4112	334530.366865312698	2436.557054054
0	4121	335394.650322943943	2448.5888083465
0	4126	335834.943583421426	2094.7048969567
0	4139	336578.818771010282	2048.4519056976
0	4146	337371.769296750444	1977.1189738065
0	4157	337884.85507587904	1849.7664000839
0	4162	338283.278663875553	1704.4598928653
0	4171	339139.993582014012	1754.3218793347
0	4180	340343.174385745096	2458.3193098661
0	4191	341122.050771117228	2343.0046722293
0	4202	342123.979898029956	2489.7424712777
0	4207	342489.375484222564	2001.1215687264
0	4216	343060.183603875357	1818.477429729
0	4227	344173.872938565928	2049.893040536
0	4234	344871.665798826161	2118.5397487599
0	4245	345649.046783521789	2161.795210233
0	4254	346652.359036076832	2304.3199075386
0	4261	347274.458918999899	2246.572135482
0	4270	348164.411433599908	2283.576385444
0	4281	348676.860174117628	1945.0740407221
0	4288	348977.388870064187	1481.5982676577
0	4301	349985.048816632498	1703.0189104378
0	4310	350805.798449227605	1993.2058660313
0	4315	351291.997234197352	2153.2811206765
0	4328	352252.675619535166	2267.6268029027
0	4335	352687.754543731007	1881.9560945034
0	4342	353299.367627408373	1607.5608427171
0	4355	354481.660423195008	2228.9848036598
0	4360	354789.725869148988	1810.384629434
0	4369	355777.86510363223	1949.2863984313
0	4378	356650.025672279317	2168.3652490843
0	4387	357301.571517158318	2049.9917208217
0	4398	358035.51061511973	2012.9677718505
0	4409	359182.217626506483	2304.4787135907
0	4416	360020.404462935423	2381.2322680838
0	4427	360835.145230824148	2327.395446226
0	4432	361394.514683168402	2212.2970566619
0	4441	362061.580839799737	2024.9500262551
0	4450	362792.309254361337	1957.1640235372
0	4459	363603.210084931945	1913.1795025896
0	4468	364146.171177271774	1723.9262439776
0	4473	364704.11141118968	1503.4622458275
0	4486	366085.519499843959	2147.9777030647
0	4495	366854.495080327634	2120.6667949911
0	4504	367917.697962094118	2295.3051838093
0	4517	368888.661198690553	2559.1921821702
0	4522	369525.512413261478	2313.3102580905
0	4533	370543.457579333355	2464.2855179496
0	4544	371405.171334045028	2516.5101353545
0	4553	372196.500370278975	2522.7130693384
0	4558	372602.673683781197	2047.8017048445
0	4569	373344.618586264571	1939.4472522195
0	4576	373689.112741593292	1492.6123713143
0	4585	374260.253741545623	1491.4922090247
0	4596	375295.262435032076	1868.7128653284
0	4603	375738.166984962321	1839.3557448406
0	4612	376835.907357232667	2279.905386921
0	4623	377515.551325678847	2214.9888372514
0	4634	378323.627041513122	2150.701248832
0	4643	379089.432237530149	2041.9320589397
0	4648	379511.156370677076	1988.8047663029
0	4659	380289.648727281041	1966.0216857679
0	4666	380701.380949839972	1611.9487123098
0	4675	381709.782562125497	2078.6203178577
0	4684	382054.905431298561	1576.1790390126
0	4697	383213.615009374939	1913.1205389742
0	4704	383909.433128032856	1983.8780937251
0	4713	384820.291359303542	2425.8984633721
0	4720	385221.769608836644	2008.1545994617
0	4729	386089.04933491724	2048.7728315871
0	4742	387141.398374456935	2279.6491172165
0	4749	387941.116162017011	2182.891649846
0	4758	388774.767817044654	2389.7797806188
0	4767	389581.307444628352	2439.9090701714
0	4776	390287.663337914296	2303.1554608606
0	4783	390674.947159225144	1821.0570140742
0	4792	391471.367136854701	1840.7720513642
0	4801	392091.127100447216	1752.9428060632
0	4814	392869.173969514691	1989.6640671417
0	4819	393244.425372267165	1506.3922423404
0	4828	394062.302761059278	1751.5286693349
0	4837	394760.814680205681	1891.640710691
0	4850	395880.605057207891	2340.2842600364
0	4859	396715.108247520426	2316.578835994
0	4864	397234.066961193481	2108.7410951033
0	4877	398260.295489430452	2379.6904322226
0	4886	398916.788534168179	2201.6802866478
0	4891	399246.480364864717	1652.6866244618
0	4900	399950.684274220865	1690.3887847904
0	4911	400980.369845777775	2063.5813116096
0	4922	402191.862913733374	2641.9644390699
0	4929	402702.374771051135	2283.5859343875
0	4940	403519.918180117409	2201.8151967321
0	4949	404375.482409074928	2183.6194953416
0	4958	404972.624203423064	2163.4818581399
0	4963	405289.354519452926	1769.4363393355
0	4972	406167.135498533051	1791.6530894581
0	4983	407478.03325890566	2505.4090554826
0	4994	408373.963954858508	2572.5500171073
0	5003	409184.974346123662	2502.3657378741
0	5012	410033.009328274083	2540.6195541378
0	5017	410780.747116729644	2406.7831618711
0	5026	411298.393748095285	2113.4194019716
0	5035	411781.956764683154	1748.9474364091
0	5048	412924.892399227273	2009.0813037939
0	5057	413651.769636478301	2146.2003485765
0	5064	414212.786983000141	1895.5537630711
0	5071	414919.497471861567	1994.6050726343
0	5080	415870.916355913531	2219.1467194352
0	5091	416556.703838333514	2097.709076805
0	5102	417240.1771408506	1894.1547906026
0	5107	417792.231257306438	1590.7819461543
0	5118	418573.078013537478	2004.6845220029
0	5127	419241.236894857164	2001.0597540066
0	5138	420150.346644362461	2030.4552120622
0	5143	420677.37904116514	2017.6566808484
0	5154	421424.149417597826	2075.9067232255
0	5163	422315.923304669585	2165.5766603071
0	5170	422712.157991481971	1925.2327944618
0	5181	423218.361084396045	1700.352067966
0	5190	423854.796436429049	1505.6970009115
0	5199	424745.859233709078	1914.1009757761
0	5206	425274.845266342189	1877.7591427322
0	5217	426015.84546002562	1804.3706010561
0	5228	426780.860232375589	1813.6539987288
0	5237	427600.357039086548	2260.5583632365
0	5244	428395.76006918217	2171.8934931792
0	5251	428744.675314938677	1963.8150825631
0	5264	429953.242833120776	2352.8857940342
0	5273	430566.216558124898	2157.3143558577
0	5280	431394.032575981719	2201.0268685408
0	5289	431938.107347767829	1984.8645146471
0	5296	432383.039169665455	1816.8226115406
0	5307	433252.166126249387	1817.0605160762
0	5316	433970.099030714511	1783.708735602
0	5327	434890.743800159572	2248.2943292242
0	5334	435621.338084433256	2280.521877436
0	5345	436627.174259210034	2616.7597108986
0	5354	437402.225497551291	2511.4816973917
0	5363	437966.618632664933	2199.0222847089
0	5370	438413.779706927045	1786.605447717
0	5377	438803.383622271969	1401.1581247207
0	5388	439600.935088517173	1634.3164558522
0	5395	440204.475067975029	1610.3804449551
0	5406	441162.20046384263	2113.4307890665
0	5413	441629.402258573129	1938.8425104786
0	5424	442647.590147797048	2225.8132536896
0	5433	443493.172282353073	2231.6437051166
0	5440	444193.642647564441	2035.6765632983
0	5451	445139.498438732728	2112.7472666558
0	5462	445825.374563550607	2049.9350488186
0	5467	446270.120925502882	1687.2356015258
0	5476	446907.635209802569	1724.9179548584
0	5485	447673.833410209076	1848.4588466585
0	5494	448294.165695877776	1716.1147344857
0	5503	449063.370545161919	1689.6524464712
0	5514	450147.923109401049	1904.6595279593
0	5523	450727.823649114029	1794.0671725664
0	5530	451049.22708249654	1466.7316298001
0	5539	451994.402422243761	1698.3298289124
0	5550	452779.007067577945	1826.4898688067
0	5561	453394.986942037972	1942.916335864
0	5570	454272.360274381968	2065.5824296642
0	5577	454795.44181795794	1898.7270355225
0	5584	455160.920910537275	1765.9339684993
0	5593	456034.057830646666	1761.6975562647
0	5606	457348.766142921554	2548.4128177632
0	5615	458241.559209488364	2559.5320518594
0	5624	459097.859559115054	2544.7044629138
0	5631	459490.050055040078	2141.2839121185
0	5638	460028.062306903334	1786.503097415
0	5649	460927.456282451781	1829.5967233367
0	5658	461810.822605853932	2162.4002829194
0	5669	462730.301222205194	2281.6912375856
0	5676	463286.342431185799	2067.9303647485
0	5683	463618.413396924766	1776.8298983574
0	5692	464838.18639032546	2107.8851681203
0	5701	465875.100814970242	2368.1408552919
0	5710	466712.212315388056	2370.2891112305
0	5723	467711.701099528032	2499.9686475378
0	5730	468414.225190272587	2335.2178653236
0	5737	468722.368669090825	1838.3495163638
0	5746	469642.323730420354	1930.6226308923
0	5757	470591.932442458379	2165.1739450637
0	5764	470904.581069760057	1602.7666796464
0	5777	472180.782111408221	1993.8658616971
0	5782	472832.5922568329	2138.244132651
0	5795	473747.598012909326	2420.7186120562
0	5800	474111.441437993231	1930.659326585
0	5811	474903.574885195154	1876.2124089058
0	5822	475760.508937016162	2012.9109241068
0	5827	476064.398175850543	1562.8336921334
0	5838	477232.759569631922	2268.8993421849
0	5847	478205.14518474232	2444.6362477262
0	5858	479081.929610436816	2537.0103066321
0	5865	479588.177923997898	2169.6063562296
0	5876	480612.607793463428	2326.1208314449
0	5881	480992.019278928671	1910.0896684919
0	5890	481965.603254037012	2192.7114594262
0	5901	482896.473316708614	2283.8655232452
0	5908	483463.052222365547	1969.8216217104
0	5919	484286.993789719452	2107.0599714294
0	5926	484876.165366871317	1955.1966384519
0	5935	485620.013439701904	1995.1005330775
0	5944	486273.981704190408	1873.1038915459
0	5953	487177.257999870961	1962.260067137
0	5962	488050.835111411323	2140.1904928498
0	5975	489160.1924224757	2354.4839166105
0	5982	489788.310865871643	2131.2777080107
0	5993	490916.244455007871	2457.9809688963
0	6002	491639.422539901023	2479.2301174253
0	6007	492179.282753029873	2146.0583063308
0	6020	493346.199406497215	2429.9549514893
0	6027	494011.37795937251	2371.9554194715
0	6036	494950.700575998087	2445.6134517677
0	6043	495836.827677162398	2490.6282706652
0	6052	496379.025251045858	2138.8990863226
0	6063	497141.42208192501	2005.2382693626
0	6072	498348.632927890903	2414.5448040683
0	6083	499237.826290447301	2468.3347431477
0	6090	499856.824964331499	2223.9569142926
0	6099	500932.854670006818	2572.955705272
0	6106	501279.986457712985	2042.1601672657
0	6117	502432.691832399033	2295.7131360658
0	6124	503063.275040220507	2088.0869767629
0	6137	503918.641456961669	2138.8126789592
0	6142	504343.943382008038	1772.6641177665
0	6155	505334.329983545505	1954.849520931
0	6160	505743.773364136033	1825.1319071744
0	6169	506264.182620216198	1526.8168771639
0	6178	507272.359231207558	1938.0292476621
0	6189	508126.763547118791	2145.5619477667
0	6196	509018.680739169978	2271.2626745459
0	6209	510087.825271440709	2467.4311744049
0	6214	510606.012412486637	2234.1738063376
0	6225	511472.066016588399	2270.2048256993
0	6232	512139.23638598066	2051.41111454
0	6241	513281.065397802779	2336.5432879888
0	6254	514244.501976622308	2525.2836847678
0	6261	514917.666526744182	2337.1587793808
0	6268	515493.393565574701	2027.0182795823
0	6277	516344.293615920509	2099.7916392982
0	6290	517352.360230777453	2241.1878414452
0	6295	517655.587153695564	1985.0786145777
0	6306	518449.347876431461	1911.9437956251
0	6313	519122.450060024898	1770.0898292474
0	6324	519890.826588543172	1849.4021063671
0	6335	520313.42703010891	1570.7394837867
0	6342	521020.444928342517	1774.279270554
0	6351	521561.281850840937	1653.2826467883
0	6360	522676.59588251267	2363.1688524038
0	6371	523429.668847052421	2336.4042424131
0	6378	524102.747472748201	2120.7295680419
0	6385	524917.244256706949	2220.4649121501
0	6398	525825.287547754164	2395.6187007017
0	6403	526170.881898002739	1924.7656378895
0	6416	526993.362410506274	1938.1832269952
0	6423	527788.667945098172	1963.380397344
0	6432	528330.278231017332	1972.1288233995
0	6439	528975.037566013675	1981.6751555074
0	6450	530059.855736978392	2232.2277650703
0	6461	530940.453023230698	2242.9478903767
0	6466	531299.193615233567	1872.3193676211
0	6479	532589.029736118432	2352.6950812899
0	6488	533401.762825297233	2461.3098020665
0	6497	534183.430332178291	2414.3081787508
0	6504	534673.826813511592	2084.7970773932
0	6515	535550.638418644708	2148.8755933475
0	6520	536158.547083893832	1975.1167517155
0	6533	537028.761086845812	2297.4675400648
0	6538	537375.574823794928	1824.9364051502
0	6549	538376.788979396265	2024.5542027522
0	6558	538951.766235614237	1923.0051487684
0	6565	539868.199910363224	1988.5742751416
0	6576	540544.685386866373	2041.0905464552
0	6583	541099.159584380728	1903.0524741858
0	6594	542385.483595496086	2471.8055650592
0	6605	543194.359743269202	2414.2144217156
0	6610	543902.639761241195	2266.2713021971
0	6621	544773.767765471753	2377.08583083
0	6632	545663.228170573753	2468.8684273046
0	6637	546001.292643416715	1950.1377638429
0	6646	546830.086663132575	1887.0190639514
0	6655	547656.136413384271	1992.9082428105
0	6664	548395.844948524652	1920.4607062507
0	6673	548817.104598647026	1538.7772281189
0	6682	549653.58643960212	1747.5617967546
0	6691	550079.491685237779	1493.877773406
0	6700	551204.686284251554	1935.1071657613
0	6709	551711.638966575307	1849.5412968099
0	6720	552744.48191081178	2221.5445082635
0	6731	553405.908333649901	2114.2611790448
0	6738	553993.713801959572	1991.9270931277
0	6745	554523.206378566143	1676.4536997769
0	6758	555559.781635087025	2153.8733014371
0	6765	556197.007430624258	2083.2168193068
0	6772	556699.25145073798	1806.4934250433
0	6781	557633.257052768064	2073.475417681
0	6792	558640.397934056861	2257.5686054304
0	6803	559721.752337040422	2515.9056443721
0	6812	560569.745680270759	2538.2625262253
0	6819	561011.52920695026	2163.6448333506
0	6830	561858.311840985013	2136.5595039446
0	6835	562209.38520622444	1639.6395259537
0	6848	563308.716376684649	2291.6297659278
0	6855	563681.648014532445	1823.3361735474
0	6862	564076.904241414784	1456.6223166883
0	6873	564865.530047798572	1556.8136711139
0	6880	565691.857226053296	1830.6438656989
0	6891	566599.97948817913	2120.6476301886
0	6898	566945.074490737212	1610.1021696813
0	6907	567984.667640319138	2050.9847846814
0	6916	568780.389939341738	1959.6770545933
0	6929	569732.896004430994	2052.2611377295
0	6936	570331.618835264861	1902.6079757139
0	6947	571258.942703576803	2334.5814003143
0	6954	571968.77119224523	2235.8751878142
0	6961	572783.860799018338	2377.5858666748
0	6972	573498.513560788751	2239.5708572119
0	6979	573971.709018806041	1869.4787504151
0	6988	574447.668844694317	1492.5798593089
0	6997	575139.215951040432	1422.4306699354
0	7010	576442.661818675742	2326.9936788362
0	7015	576874.893889529676	1991.7322411202
0	7024	577379.595643049151	1704.9323289189
0	7035	578401.36228096676	1958.700462291
0	7044	579103.771831886889	2047.8802976198
0	7051	579790.845112502621	2140.6532585621
0	7062	580605.092446412938	2091.8888188899
0	7069	581395.213541435125	2037.7243474592
0	7080	582383.56893570167	2268.5633956455
0	7087	582811.831966135697	1998.1232821941
0	7100	583611.904009943874	1955.833330052
0	7109	584504.27470807922	1976.3362733647
0	7118	585398.412598902406	2451.6218751669
0	7125	585886.313351662876	2274.409341719
0	7132	586495.486632920848	1991.2119248416
0	7141	587124.192736996384	1725.780138094
0	7154	588246.483753249096	2089.1150765587
0	7163	588997.241329075815	2101.735558128
0	7168	589569.617946026893	2068.4683453292
0	7177	590017.830469133379	1771.3467158843
0	7186	590568.425874458673	1571.1845453829
0	7197	591441.769734956371	1726.6705957241
0	7206	592291.993230907293	2022.9426122736
0	7217	593181.486788112717	2301.2073955033
0	7222	593517.971046874346	2005.9355075005
0	7235	594672.726177144842	2307.5030664448
0	7244	595425.283267954411	2243.7964798417
0	7249	595765.684110811027	1789.2234003637
0	7258	596695.801100274594	2023.0749231298
0	7269	597556.73118936834	2131.4479214139
0	7280	598512.314864806878	2328.7807958666
0	7285	598851.130703324499	1776.4056332409
0	7294	599656.104673678102	1762.6920970157
0	7303	600266.381400078582	1754.0665352717
0	7316	601352.157429372939	2117.1027654782
0	7323	601985.699740704196	2082.3711756617
0	7330	602609.6324323677	1968.9260032028
0	7339	603463.7768500485	2111.6194206756
0	7352	604440.802768059122	2341.5149927605
1	3201	260077.740099001689	354
1	3208	260407.965280674411	355
1	3217	261317.153449589399	356
1	3230	262290.014078607795	357
1	3235	262599.465492367757	358
1	3246	263587.060288712395	359
1	3253	264130.505899200228	360
1	3262	264927.898429753271	361
1	3275	265861.634424235684	362
1	3280	266412.943949829799	363
1	3289	267211.432742653427	364
1	3298	267654.233555635449	365
1	3307	268427.874194132177	366
1	3320	269632.132518757146	367
1	3329	270178.19452174009	368
1	3336	270968.127417331573	369
1	3343	271530.543982191023	370
1	3356	272544.158658245589	371
1	3363	272992.512830067437	372
1	3370	273418.365576770168	373
1	3381	274355.618558591243	374
1	3392	275261.23293726706	375
1	3397	275622.460368974144	376
1	3410	276696.477310359487	377
1	3419	277550.040963990623	378
1	3428	278226.060708705345	379
1	3435	278617.826684983456	380
1	3442	279268.597864173362	381
1	3451	279900.123537937189	382
1	3460	281206.684182817126	383
1	3473	281791.635944321761	384
1	3480	282492.6840172615	385
1	3487	283010.430519282828	386
1	3496	283888.877836475159	387
1	3505	284694.266716903086	388
1	3514	285609.33531713673	389
1	3527	286442.311692796658	390
1	3532	286838.210139842714	391
1	3541	287546.549811121087	392
1	3550	288247.19904488885	393
1	3559	289063.291844492789	394
1	3568	289816.574964439507	395
1	3581	291027.375140134257	396
1	3586	291349.329629866418	397
1	3595	292023.397733364266	398
1	3608	292940.676782839012	399
1	3617	293779.357498046023	400
1	3626	294596.719223214326	401
1	3633	295154.461583588285	402
1	3642	296054.943585488958	403
1	3653	296622.45474122466	404
1	3660	297089.753417763872	405
1	3671	297900.27230260895	406
1	3678	298623.115791007889	407
1	3689	299360.794859658939	408
1	3698	300192.756004119304	409
1	3703	300520.860718516645	410
1	3712	301411.766242794704	411
1	3723	301948.239322146413	412
1	3730	302532.692008791504	413
1	3743	303812.828590907169	414
1	3750	304172.444418864337	415
1	3759	305029.560479242368	416
1	3766	305728.700217185555	417
1	3777	306677.427996927886	418
1	3788	307712.558452505632	419
1	3795	308344.717488158508	420
1	3806	309221.075383946313	421
1	3813	309725.104855047552	422
1	3822	310138.255012733876	423
1	3833	311217.430760152652	424
1	3840	311721.430507348864	425
1	3849	312874.925732100396	426
1	3856	313358.848018711446	427
1	3867	314389.941927837222	428
1	3874	314964.322961401208	429
1	3885	315977.346246410175	430
1	3892	316723.826678423225	431
1	3905	317622.669677529498	432
1	3914	318178.141620196416	433
1	3923	319022.87979209797	434
1	3932	319792.930374015137	435
1	3939	320181.969496468096	436
1	3946	320657.281322032227	437
1	3955	321452.166313631474	438
1	3968	322465.872147213683	439
1	3977	323365.061012282983	440
1	3986	324127.395632956192	441
1	3991	324531.426358921468	442
1	4002	325487.818880751744	443
1	4013	326316.135399509236	444
1	4018	326646.123227057993	445
1	4031	327557.870516460404	446
1	4038	328244.465230498478	447
1	4045	328630.789436073989	448
1	4056	329522.102536121399	449
1	4065	330294.194399658607	450
1	4074	330906.799722136946	451
1	4083	331763.004275830479	452
1	4090	332601.656481111439	453
1	4099	333400.352417584526	454
1	4112	334530.366865312698	455
1	4121	335394.650322943943	456
1	4126	335834.943583421426	457
1	4139	336578.818771010282	458
1	4146	337371.769296750444	459
1	4157	337884.85507587904	460
1	4162	338283.278663875553	461
1	4171	339139.993582014012	462
1	4180	340343.174385745096	463
1	4191	341122.050771117228	464
1	4202	342123.979898029956	465
1	4207	342489.375484222564	466
1	4216	343060.183603875357	467
1	4227	344173.872938565928	468
1	4234	344871.665798826161	469
1	4245	345649.046783521789	470
1	4254	346652.359036076832	471
1	4261	347274.458918999899	472
1	4270	348164.411433599908	473
1	4281	348676.860174117628	474
1	4288	348977.388870064187	475
1	4301	349985.048816632498	476
1	4310	350805.798449227605	477
1	4315	351291.997234197352	478
1	4328	352252.675619535166	479
1	4335	352687.754543731007	480
1	4342	353299.367627408373	481
1	4355	354481.660423195008	482
1	4360	354789.725869148988	483
1	4369	355777.86510363223	484
1	4378	356650.025672279317	485
1	4387	357301.571517158318	486
1	4398	358035.51061511973	487
1	4409	359182.217626506483	488
1	4416	360020.404462935423	489
1	4427	360835.145230824148	490
1	4432	361394.514683168402	491
1	4441	362061.580839799737	492
1	4450	362792.309254361337	493
1	4459	363603.210084931945	494
1	4468	364146.171177271774	495
1	4473	364704.11141118968	496
1	4486	366085.519499843959	497
1	4495	366854.495080327634	498
1	4504	367917.697962094118	499
1	4517	368888.661198690553	500
1	4522	369525.512413261478	501
1	4533	370543.457579333355	502
1	4544	371405.171334045028	503
1	4553	372196.500370278975	504
1	4558	372602.673683781197	505
1	4569	373344.618586264571	506
1	4576	373689.112741593292	507
1	4585	374260.253741545623	508
1	4596	375295.262435032076	509
1	4603	375738.166984962321	510
1	4612	376835.907357232667	511
1	4623	377515.551325678847	512
1	4634	378323.627041513122	513
1	4643	379089.432237530149	514
1	4648	379511.156370677076	515
1	4659	380289.648727281041	516
1	4666	380701.380949839972	517
1	4675	381709.782562125497	518
1	4684	382054.905431298561	519
1	4697	383213.615009374939	520
1	4704	383909.433128032856	521
1	4713	384820.291359303542	522
1	4720	385221.769608836644	523
1	4729	386089.04933491724	524
1	4742	387141.398374456935	525
1	4749	387941.116162017011	526
1	4758	388774.767817044654	527
1	4767	389581.307444628352	528
1	4776	390287.663337914296	529
1	4783	390674.947159225144	530
1	4792	391471.367136854701	531
1	4801	392091.127100447216	532
1	4814	392869.173969514691	533
1	4819	393244.425372267165	534
1	4828	394062.302761059278	535
1	4837	394760.814680205681	536
1	4850	395880.605057207891	537
1	4859	396715.108247520426	538
1	4864	397234.066961193481	539
1	4877	398260.295489430452	540
1	4886	398916.788534168179	541
1	4891	399246.480364864717	542
1	4900	399950.684274220865	543
1	4911	400980.369845777775	544
1	4922	402191.862913733374	545
1	4929	402702.374771051135	546
1	4940	403519.918180117409	547
1	4949	404375.482409074928	548
1	4958	404972.624203423064	549
1	4963	405289.354519452926	550
1	4972	406167.135498533051	551
1	4983	407478.03325890566	552
1	4994	408373.963954858508	553
1	5003	409184.974346123662	554
1	5012	410033.009328274083	555
1	5017	410780.747116729644	556
1	5026	411298.393748095285	557
1	5035	411781.956764683154	558
1	5048	412924.892399227273	559
1	5057	413651.769636478301	560
1	5064	414212.786983000141	561
1	5071	414919.497471861567	562
1	5080	415870.916355913531	563
1	5091	416556.703838333514	564
1	5102	417240.1771408506	565
1	5107	417792.231257306438	566
1	5118	418573.078013537478	567
1	5127	419241.236894857164	568
1	5138	420150.346644362461	569
1	5143	420677.37904116514	570
1	5154	421424.149417597826	571
1	5163	422315.923304669585	572
1	5170	422712.157991481971	573
1	5181	423218.361084396045	574
1	5190	423854.796436429049	575
1	5199	424745.859233709078	576
1	5206	425274.845266342189	577
1	5217	426015.84546002562	578
1	5228	426780.860232375589	579
1	5237	427600.357039086548	580
1	5244	428395.76006918217	581
1	5251	428744.675314938677	582
1	5264	429953.242833120776	583
1	5273	430566.216558124898	584
1	5280	431394.032575981719	585
1	5289	431938.107347767829	586
1	5296	432383.039169665455	587
1	5307	433252.166126249387	588
1	5316	433970.099030714511	589
1	5327	434890.743800159572	590
1	5334	435621.338084433256	591
1	5345	436627.174259210034	592
1	5354	437402.225497551291	593
1	5363	437966.618632664933	594
1	5370	438413.779706927045	595
1	5377	438803.383622271969	596
1	5388	439600.935088517173	597
1	5395	440204.475067975029	598
1	5406	441162.20046384263	599
1	5413	441629.402258573129	600
1	5424	442647.590147797048	601
1	5433	443493.172282353073	602
1	5440	444193.642647564441	603
1	5451	445139.498438732728	604
1	5462	445825.374563550607	605
1	5467	446270.120925502882	606
1	5476	446907.635209802569	607
1	5485	447673.833410209076	608
1	5494	448294.165695877776	609
1	5503	449063.370545161919	610
1	5514	450147.923109401049	611
1	5523	450727.823649114029	612
1	5530	451049.22708249654	613
1	5539	451994.402422243761	614
1	5550	452779.007067577945	615
1	5561	453394.986942037972	616
1	5570	454272.360274381968	617
1	5577	454795.44181795794	618
1	5584	455160.920910537275	619
1	5593	456034.057830646666	620
1	5606	457348.766142921554	621
1	5615	458241.559209488364	622
1	5624	459097.859559115054	623
1	5631	459490.050055040078	624
1	5638	460028.062306903334	625
1	5649	460927.456282451781	626
1	5658	461810.822605853932	627
1	5669	462730.301222205194	628
1	5676	463286.342431185799	629
1	5683	463618.413396924766	630
1	5692	464838.18639032546	631
1	5701	465875.100814970242	632
1	5710	466712.212315388056	633
1	5723	467711.701099528032	634
1	5730	468414.225190272587	635
1	5737	468722.368669090825	636
1	5746	469642.323730420354	637
1	5757	470591.932442458379	638
1	5764	470904.581069760057	639
1	5777	472180.782111408221	640
1	5782	472832.5922568329	641
1	5795	473747.598012909326	642
1	5800	474111.441437993231	643
1	5811	474903.574885195154	644
1	5822	475760.508937016162	645
1	5827	476064.398175850543	646
1	5838	477232.759569631922	647
1	5847	478205.14518474232	648
1	5858	479081.929610436816	649
1	5865	479588.177923997898	650
1	5876	480612.607793463428	651
1	5881	480992.019278928671	652
1	5890	481965.603254037012	653
1	5901	482896.473316708614	654
1	5908	483463.052222365547	655
1	5919	484286.993789719452	656
1	5926	484876.165366871317	657
1	5935	485620.013439701904	658
1	5944	486273.981704190408	659
1	5953	487177.257999870961	660
1	5962	488050.835111411323	661
1	5975	489160.1924224757	662
1	5982	489788.310865871643	663
1	5993	490916.244455007871	664
1	6002	491639.422539901023	665
1	6007	492179.282753029873	666
1	6020	493346.199406497215	667
1	6027	494011.37795937251	668
1	6036	494950.700575998087	669
1	6043	495836.827677162398	670
1	6052	496379.025251045858	671
1	6063	497141.42208192501	672
1	6072	498348.632927890903	673
1	6083	499237.826290447301	674
1	6090	499856.824964331499	675
1	6099	500932.854670006818	676
1	6106	501279.986457712985	677
1	6117	502432.691832399033	678
1	6124	503063.275040220507	679
1	6137	503918.641456961669	680
1	6142	504343.943382008038	681
1	6155	505334.329983545505	682
1	6160	505743.773364136033	683
1	6169	506264.182620216198	684
1	6178	507272.359231207558	685
1	6189	508126.763547118791	686
1	6196	509018.680739169978	687
1	6209	510087.825271440709	688
1	6214	510606.012412486637	689
1	6225	511472.066016588399	690
1	6232	512139.23638598066	691
1	6241	513281.065397802779	692
1	6254	514244.501976622308	693
1	6261	514917.666526744182	694
1	6268	515493.393565574701	695
1	6277	516344.293615920509	696
1	6290	517352.360230777453	697
1	6295	517655.587153695564	698
1	6306	518449.347876431461	699
1	6313	519122.450060024898	700
1	6324	519890.826588543172	701
1	6335	520313.42703010891	702
1	6342	521020.444928342517	703
1	6351	521561.281850840937	704
1	6360	522676.59588251267	705
1	6371	523429.668847052421	706
1	6378	524102.747472748201	707
1	6385	524917.244256706949	708
1	6398	525825.287547754164	709
1	6403	526170.881898002739	710
1	6416	526993.362410506274	711
1	6423	527788.667945098172	712
1	6432	528330.278231017332	713
1	6439	528975.037566013675	714
1	6450	530059.855736978392	715
1	6461	530940.453023230698	716
1	6466	531299.193615233567	717
1	6479	532589.029736118432	718
1	6488	533401.762825297233	719
1	6497	534183.430332178291	720
1	6504	534673.826813511592	721
1	6515	535550.638418644708	722
1	6520	536158.547083893832	723
1	6533	537028.761086845812	724
1	6538	537375.574823794928	725
1	6549	538376.788979396265	726
1	6558	538951.766235614237	727
1	6565	539868.199910363224	728
1	6576	540544.685386866373	729
1	6583	541099.159584380728	730
1	6594	542385.483595496086	731
1	6605	543194.359743269202	732
1	6610	543902.639761241195	733
1	6621	544773.767765471753	734
1	6632	545663.228170573753	735
1	6637	546001.292643416715	736
1	6646	546830.086663132575	737
1	6655	547656.136413384271	738
1	6664	548395.844948524652	739
1	6673	548817.104598647026	740
1	6682	549653.58643960212	741
1	6691	550079.491685237779	742
1	6700	551204.686284251554	743
1	6709	551711.638966575307	744
1	6720	552744.48191081178	745
1	6731	553405.908333649901	746
1	6738	553993.713801959572	747
1	6745	554523.206378566143	748
1	6758	555559.781635087025	749
1	6765	556197.007430624258	750
1	6772	556699.25145073798	751
1	6781	557633.257052768064	752
1	6792	558640.397934056861	753
1	6803	559721.752337040422	754
1	6812	560569.745680270759	755
1	6819	561011.52920695026	756
1	6830	561858.311840985013	757
1	6835	562209.38520622444	758
1	6848	563308.716376684649	759
1	6855	563681.648014532445	760
1	6862	564076.904241414784	761
1	6873	564865.530047798572	762
1	6880	565691.857226053296	763
1	6891	566599.97948817913	764
1	6898	566945.074490737212	765
1	6907	567984.667640319138	766
1	6916	568780.389939341738	767
1	6929	569732.896004430994	768
1	6936	570331.618835264861	769
1	6947	571258.942703576803	770
1	6954	571968.77119224523	771
1	6961	572783.860799018338	772
1	6972	573498.513560788751	773
1	6979	573971.709018806041	774
1	6988	574447.668844694317	775
1	6997	575139.215951040432	776
1	7010	576442.661818675742	777
1	7015	576874.893889529676	778
1	7024	577379.595643049151	779
1	7035	578401.36228096676	780
1	7044	579103.771831886889	781
1	7051	579790.845112502621	782
1	7062	580605.092446412938	783
1	7069	581395.213541435125	784
1	7080	582383.56893570167	785
1	7087	582811.831966135697	786
1	7100	583611.904009943874	787
1	7109	584504.27470807922	788
1	7118	585398.412598902406	789
1	7125	585886.313351662876	790
1	7132	586495.486632920848	791
1	7141	587124.192736996384	792
1	7154	588246.483753249096	793
1	7163	588997.241329075815	794
1	7168	589569.617946026893	795
1	7177	590017.830469133379	796
1	7186	590568.425874458673	797
1	7197	591441.769734956371	798
1	7206	592291.993230907293	799
1	7217	593181.486788112717	800
1	7222	593517.971046874346	801
1	7235	594672.726177144842	802
1	7244	595425.283267954411	803
1	7249	595765.684110811027	804
1	7258	596695.801100274594	805
1	7269	597556.73118936834	806
1	7280	598512.314864806878	807
1	7285	598851.130703324499	808
1	7294	599656.104673678102	809
1	7303	600266.381400078582	810
1	7316	601352.157429372939	811
1	7323	601985.699740704196	812
1	7330	602609.6324323677	813
1	7339	603463.7768500485	814
1	7352	604440.802768059122	815

