version 2
run Pipelined_3Teachers-97-20190105-10:57:39-5452
attr configname Pipelined_3Teachers
attr datetime 20190105-10:57:39
attr experiment Pipelined_3Teachers
attr inifile ../simulations/omnetpp.ini
attr iterationvars "$0=\"uniform\""
attr iterationvarsf uniform-
attr measurement "$0=\"uniform\""
attr network PipelinedExamSession
attr processid 5452
attr repetition 97
attr replication #97
attr resultdir results
attr runnumber 97
attr seedset 97
param **.teachersNumber 3
param **.answerTimeDistribution "\"uniform\""
param **.minUniform 300
param **.maxUniform 900
param **.scaleLognormal 6.2854
param **.shapeLognormal 0.4724

vector 0 PipelinedExamSession examinationTime:vector ETV
attr source examFinished
vector 1 PipelinedExamSession studentID:vector ETV
attr source student
0	3129	260228.263062424976	1897.7407400496
0	3138	261171.500035654772	1943.3706763666
0	3145	261746.526719396952	1890.3412747197
0	3158	262927.280940022338	2389.4278678112
0	3165	263602.121290611122	2325.8269077167
0	3176	264402.833437873069	2366.3453812245
0	3181	264842.545348824952	1915.2644088026
0	3190	265629.95813875461	1899.5673277415
0	3201	266629.337714239974	2226.5042763669
0	3210	267424.398967204635	2306.0937160626
0	3217	268178.498951531965	2251.283153845
0	3226	268714.871709840391	1897.8526521474
0	3235	269341.761571308616	1820.9686496761
0	3246	270165.830215299521	1813.8661328238
0	3253	270553.473274363224	1585.0849347655
0	3262	271286.255148611982	1630.1214625128
0	3273	272016.6191338096	1667.14570513
0	3282	272814.837981993351	2038.6024786625
0	3291	273645.92361766847	2233.9222953189
0	3302	274231.582847563569	1969.4811985362
0	3309	274915.53394049408	1849.3081812747
0	3316	275491.323474934344	1808.7981778197
0	3327	276438.4344101418	2206.8515625782
0	3336	277309.701059991513	2279.2482194491
0	3347	278176.598095754181	2289.6962943021
0	3354	278676.52392424645	2132.6911635697
0	3361	279165.715225646292	1737.5378023367
0	3370	279971.875899424796	1795.2778036706
0	3383	281237.709675868994	2215.6479874626
0	3388	281859.462668839863	2191.35012771
0	3397	282365.742869116386	1816.2130990997
0	3408	283514.321026671698	2276.6113508027
0	3417	284243.601287947989	2181.2020762358
0	3424	284939.822804555318	2128.4952107817
0	3435	285819.652031455211	2207.4829217512
0	3446	286704.570618784077	2360.9422738664
0	3453	287258.378283027581	2066.0484020133
0	3460	287664.41795686262	1799.3757859804
0	3469	288167.869840236402	1463.2992214523
0	3478	288765.272750146709	1423.9982017782
0	3491	289747.951472969748	1965.9965422936
0	3496	290096.814653417118	1633.0436883029
0	3507	290996.034581679873	1855.3802456707
0	3518	291509.57979122179	1761.628318252
0	3523	292252.077168831624	1952.9384425376
0	3532	292820.639727870024	1808.7212893646
0	3541	293589.245865494036	2079.6660742722
0	3550	294000.970915658422	1630.1540906075
0	3563	295248.687684629135	2076.9724267535
0	3568	295557.154035754524	1579.4374843128
0	3577	296441.443119943165	1856.8964559585
0	3586	297077.600706322142	1828.913021693
0	3595	297748.556344024861	1843.6286126263
0	3604	298329.94698537516	1604.6212679241
0	3615	299749.309371365258	2355.3666620515
0	3624	300092.016925988743	2041.6736852378
0	3631	300690.903764823476	1768.8708517235
0	3644	301907.263694191376	2156.2851204537
0	3649	302209.209878509889	1949.1128118709
0	3658	303091.778326593364	2032.9025665764
0	3671	303923.680987721333	2016.41729353
0	3676	304236.852641729662	1533.9602686465
0	3685	304791.44042534756	1431.9327433594
0	3696	305886.803741985956	1963.1227542646
0	3705	306524.422161374265	1736.3008408807
0	3716	307512.348015233899	2267.5060241483
0	3721	307837.365111848364	1781.1604290269
0	3732	309028.058318188439	2411.9548880495
0	3739	309574.109630472983	2061.7616152391
0	3750	310638.916957983773	2315.7926105429
0	3757	311060.384143330182	1839.3647992518
0	3770	312359.873307589467	2332.8830497339
0	3775	312696.427006786715	1980.5807251018
0	3788	314090.707918955039	2541.8827657588
0	3793	314517.384418984901	2157.5111113954
0	3802	314987.539494037654	1735.6735161971
0	3811	316141.313830297467	2050.6059113424
0	3822	316973.96303946155	2158.940678928
0	3829	317379.179653432247	1777.885366464
0	3842	318673.854903783676	2255.6680663023
0	3849	319280.142429610741	2240.148561867
0	3856	319712.4700568151	1851.3058281038
0	3865	320554.274094058228	1880.4191902746
0	3878	321884.906257130232	2346.763594402
0	3885	322593.524517724317	2358.083633054
0	3892	322996.090440731522	1921.3446768466
0	3903	323838.380435435128	1953.4741783049
0	3912	324543.272017361623	1808.2810000051
0	3919	325287.081503123071	2045.6215106416
0	3928	325993.086074385819	2025.4895133432
0	3939	326986.563326837521	2133.520598989
0	3948	327910.271237650912	2224.6394480579
0	3959	328584.995743213247	2226.6600276344
0	3968	329421.739004971485	2271.8768469058
0	3977	330159.097010549183	2247.8069841396
0	3982	330494.811742007758	1909.8159987945
0	3991	330995.977815287213	1574.2388103157
0	4000	332001.825374783973	1842.7283642348
0	4011	332906.063215294878	1920.2385107987
0	4020	333487.013074150334	1868.7887317501
0	4029	334218.416307494069	1817.7835593
0	4038	334958.935057930674	2029.0269434452
0	4047	335341.518620867308	1674.0829583723
0	4056	336155.811821250271	1878.4608795773
0	4063	336574.718141835209	1600.3235776909
0	4076	337884.470491949496	2161.3519761711
0	4085	338774.852320225937	2510.7429174241
0	4090	339310.554535081638	2260.5442686472
0	4103	340387.968878774	2503.4983868245
0	4112	341246.366838365821	2471.5145181399
0	4117	341650.172592652989	2052.6388000231
0	4126	342064.98035257685	1677.0114738028
0	4135	342881.920812930939	1635.5539745651
0	4144	343692.423462728066	1677.2919503041
0	4157	344724.244286399363	2115.7014418859
0	4164	345477.959730383037	2063.354521757
0	4171	345956.525139464093	1778.3595439978
0	4184	346796.77645540799	2072.5321690086
0	4189	347252.202029898791	1715.6625065021
0	4198	348173.809128021849	1954.0100969374
0	4211	349250.863594701541	2454.0871392936
0	4220	349776.440071268035	2262.6130095217
0	4227	350422.193438932328	2036.2794614397
0	4234	350849.724670266761	1598.8610755652
0	4243	351409.829637128889	1633.3895658609
0	4252	352147.629766305937	1674.0367687773
0	4265	353441.692948574229	2390.5921337195
0	4270	353819.188857497676	1948.1282483786
0	4279	354508.427537418931	1788.0216285121
0	4288	355116.200512787356	1674.5075642131
0	4301	356154.641312034831	1996.8249974772
0	4306	356890.830532740832	2089.8636738304
0	4315	357465.00662737529	1877.4806165602
0	4324	357976.335653057352	1821.6943410225
0	4333	358823.257604520798	1842.5355103333
0	4344	359843.762609409198	1990.1104131248
0	4351	360694.217849755689	1992.7441576961
0	4360	361352.391589293286	2148.8152328879
0	4373	362354.892471106753	2281.5913334023
0	4380	363019.65722925964	2062.4684334733
0	4391	363944.010320445553	2285.3202993516
0	4400	364559.967188257754	2205.074717151
0	4407	365118.823491269753	2063.6984907556
0	4418	365927.68744379285	1983.6771233473
0	4423	366245.505673019246	1685.5384847615
0	4434	366966.47442765537	1688.8810437173
0	4441	367511.006769351691	1583.3193255588
0	4454	368653.563830070227	2288.0135058425
0	4459	369189.203168498382	2196.2960923556
0	4472	369959.314389852837	2119.0810040105
0	4479	370426.827005669505	1773.2631755993
0	4488	371150.597602129012	1651.3622405939
0	4497	372033.093691896677	2073.7793020438
0	4504	372569.803259242356	1989.6649943199
0	4517	373897.065159771622	2441.1199464463
0	4526	374512.414392549575	2234.6992766485
0	4533	374869.46518602784	1821.8065942638
0	4540	375481.087785679877	1584.0226259083
0	4551	376145.707687642456	1633.2932950929
0	4562	376924.950182670758	1994.0281277988
0	4569	377424.392184242637	1871.3275272399
0	4578	378144.638541340859	1890.6471622176
0	4587	378727.906284900413	1802.9561022297
0	4596	379475.565311824934	2042.7753067575
0	4603	379913.590451516242	1713.7030636892
0	4612	380834.508603019669	1871.0699134972
0	4623	381727.114503085643	2062.5678787474
0	4626	382144.335465179786	1619.1447052639
0	4643	383598.865244071959	2239.8984500673
0	4650	384296.424100175528	2101.4691182412
0	4657	385043.523492151899	2084.1401666868
0	4666	385521.252943715108	1922.3876996431
0	4679	386849.459206173225	2390.4487697873
0	4686	387398.242793278797	2156.4530655742
0	4697	388463.982164673536	2508.9094501454
0	4702	389020.381884556293	2170.9226783831
0	4713	390117.726292787148	2449.2371048313
0	4724	390956.931962538539	2492.949797865
0	4733	391827.921632397948	2491.9974481221
0	4742	392465.71931093934	2247.2357586958
0	4747	392980.791353154956	2023.8593906164
0	4758	394173.983063595397	2346.0614311974
0	4769	394790.041006961865	2324.3216960225
0	4778	395588.343921303777	2247.6560365409
0	4783	395889.474172890214	1697.8658183478
0	4792	396983.406707597924	2193.3657006361
0	4801	397426.545405434472	1838.2014841307
0	4812	398394.235360482736	2176.7599891406
0	4819	399027.983059873832	1913.7477921322
0	4828	399540.45075215402	1811.5229470655
0	4837	400483.477348554907	2036.3128436264
0	4846	401407.814336987241	2089.9638755713
0	4855	402070.603755069925	1996.8485360965
0	4868	403274.021774623572	2339.4369440619
0	4875	404087.109909765451	2529.1969708633
0	4886	404977.821771428018	2600.0745432917
0	4895	405775.238848803594	2501.21707418
0	4902	406280.539668398007	2121.2139305659
0	4913	407478.837763750955	2501.0159923229
0	4918	408084.945998573705	2309.7071497701
0	4927	408563.792159501493	1898.5102268402
0	4936	409656.540893437371	2177.7031296864
0	4945	410055.324055161357	1815.1034232695
0	4956	411221.129492623762	2192.6660070196
0	4963	411565.419045416669	1716.6189671494
0	4972	412346.907501015843	1968.8586786389
0	4981	412999.759054882483	1748.6745895352
0	4994	414099.654395878346	2415.6003037468
0	4999	414596.475632255928	2044.591938844
0	5010	415067.608067812429	1629.1098458692
0	5019	416173.685139371113	2074.0307434928
0	5028	416876.034333603488	2171.5984827373
0	5037	417513.289287267284	1961.5781717934
0	5044	418249.474159302221	2005.9373160359
0	5057	419210.943822842122	2084.2784289736
0	5062	419577.571497950734	1785.2329019923
0	5071	420058.650410268486	1534.7513023764
0	5082	420935.742617351964	1724.7987945098
0	5089	421366.443092096627	1660.4674950242
0	5102	422380.779352784187	2131.7439659033
0	5111	422937.479393743009	2001.0639924556
0	5118	423378.395555075288	1750.418225443
0	5125	424222.115117730603	1841.3357649464
0	5136	425091.021480644153	2153.5420869011
0	5143	425703.750736545802	1883.9617805555
0	5152	426098.670305544542	1569.1064582672
0	5163	426945.463113673062	1846.111574024
0	5172	427648.47422358583	1782.424696628
0	5179	427974.072444951192	1587.6831691246
0	5190	428989.196065021709	1981.3741454389
0	5201	429808.520139846981	2103.4605954308
0	5210	430576.40974028039	2246.2154609151
0	5215	430964.972409093783	1960.6580567546
0	5228	432281.761193694577	2473.2410538476
0	5235	432867.593730054826	2291.1839897744
0	5246	433961.740248743475	2571.3122891262
0	5255	434852.158035105125	2570.3968414105
0	5262	435437.703189533235	2291.9816141948
0	5271	436125.379233481393	2163.6389847379
0	5282	436741.413177084208	1889.2551419791
0	5287	437216.497917752743	1759.1153017245
0	5296	437852.48627839613	1656.2626329716
0	5305	438366.852000821412	1625.4388237372
0	5314	439071.646671323136	1514.8826182354
0	5325	440060.753337247328	1844.855304854
0	5332	440477.111219801039	1818.9242192544
0	5345	441581.106645427674	2313.0826138426
0	5350	441906.968975393131	1744.0824029502
0	5361	442829.22328999269	1901.1761034373
0	5368	443225.772066134989	1644.6654207073
0	5379	444733.896096982092	2292.1913153026
0	5388	445468.056171946258	2300.7190010045
0	5397	446182.106856163622	2245.5503497738
0	5404	446556.003386713595	1761.4044045098
0	5415	447886.779969278754	2311.5746790078
0	5422	448407.495221821622	1995.9876943845
0	5435	449520.691052265496	2417.4907451961
0	5444	450011.822005547614	2088.4506081697
0	5449	450582.65362023379	1894.7609952651
0	5460	451237.053929502176	1716.3628772367
0	5471	452198.346135579081	2186.5241300315
0	5476	452544.055004976721	1720.8037087228
0	5489	453707.279558200421	2383.6334730964
0	5498	454355.392346251788	2157.0462106727
0	5507	455044.723480939897	2105.1343523897
0	5516	455914.179505733805	2206.8999475334
0	5523	456329.460417805271	1974.0680715535
0	5530	456737.479281658338	1692.7558007184
0	5539	457605.567617621305	1691.3881118875
0	5552	458878.339187661218	2300.5818845239
0	5559	459707.281895913216	2341.633320367
0	5568	460305.229859752613	2081.5344161354
0	5577	461253.381240880149	2375.0420532189
0	5584	461711.194333294439	1996.2075243238
0	5593	462351.562461582976	1835.9123661183
0	5604	463226.939560845527	1967.3865709919
0	5615	463945.049425028296	1999.4875425473
0	5620	464302.893463941322	1663.9967041556
0	5633	465615.275853825765	2322.5244005676
0	5638	466083.876006072419	2138.8265810441
0	5651	467349.113112827795	2532.3050703853
0	5660	468133.776244008946	2518.5003901832
0	5669	468853.479279018971	2376.8102550879
0	5678	469460.896481294217	2111.7833684664
0	5687	469876.853184727984	1743.076940719
0	5696	470710.619275504755	1857.1399964858
0	5701	471109.709174372288	1648.8126930781
0	5710	471822.114626644211	1945.2614419162
0	5721	472323.322395561295	1612.7031200565
0	5728	472900.307345157521	1672.9092045687
0	5739	473807.207888737353	1930.3010588977
0	5746	474976.914323307606	2394.1741836257
0	5757	475665.522930957409	2330.4593591485
0	5766	476210.829882463472	2022.6821108256
0	5773	476916.0309121013	1856.0129513964
0	5784	477747.949270438434	2063.6955422815
0	5793	478629.467467870594	2272.4125154782
0	5802	479331.678794324429	2144.8680369649
0	5811	480154.772331425951	2360.0669809151
0	5820	480889.313691202582	2205.6230201852
0	5829	481570.850018039377	2015.773008205
0	5836	482200.640701130063	1927.9125365429
0	5845	482929.672325262831	1945.6234250218
0	5858	483950.17832228917	2174.554913817
0	5863	484526.073775487052	1917.7224649116
0	5874	485251.103787962379	2131.1791667249
0	5883	486089.688930055157	2139.510607766
0	5890	486588.125781342418	1770.3448381741
0	5901	487476.961079472707	1786.7016127333
0	5912	488492.258944502132	2221.2876167614
0	5919	488935.812967596607	2157.8132901806
0	5930	490212.156325299325	2568.4678719845
0	5939	490920.590231800484	2428.3312872984
0	5948	491784.419718571039	2398.1458035763
0	5953	492165.12097567323	1952.9646503739
0	5966	493107.433110661837	2186.8428788614
0	5973	493976.124469377133	2191.7047508061
0	5982	494439.496599650043	2002.0921524614
0	5989	494996.142957452717	1888.7098467909
0	6002	496100.901388702947	2107.6987551525
0	6011	496827.958484133738	2262.998593552
0	6016	497477.04800879586	2064.4240625203
0	6027	498297.270204545963	2196.368815843
0	6036	498931.96189189333	2104.0034077596
0	6043	499489.715764112803	1763.061437197
0	6052	500655.935055390034	2227.7069786098
0	6061	501261.73535389829	1942.5331378821
0	6070	502338.28967129815	2236.7630427238
0	6081	503265.233960375223	2311.8206761312
0	6088	503791.485033882815	2001.3738753274
0	6097	505028.357611410353	2479.8369484954
0	6106	505556.890463596243	2140.6417625025
0	6115	506277.263958379661	2000.0100386795
0	6124	506941.526819625903	1801.8447557464
0	6137	507841.64663641717	1910.7758313417
0	6146	508603.203454194625	2056.7051811609
0	6153	509377.162344055285	2237.4624977354
0	6160	509894.276001630385	2052.6293652132
0	6171	510724.599027307738	2121.3955731131
0	6180	511604.376971628551	2133.9959599078
0	6187	512097.0555474982	1811.9996482506
0	6198	512942.247958481346	2121.4132242836
0	6207	513861.364537104999	2162.550547393
0	6214	514455.410103779321	2103.9293719456
0	6223	514985.729701118578	1928.0370790511
0	6236	516144.85185113739	2279.64605866
0	6245	516838.787486404216	2322.6582165342
0	6250	517262.060481682455	1937.2715315782
0	6263	518177.467268379441	2032.6154172421
0	6270	518886.643605586177	2047.856119182
0	6277	519187.041124608403	1739.1576822381
0	6286	520094.553972501343	1917.0867041219
0	6295	520931.037846067956	2001.6685299575
0	6306	521962.590908585152	2374.7134686448
0	6315	522772.089847130737	2360.8287474141
0	6326	523334.245332330501	2024.6774924453
0	6331	523636.806519934943	1649.882801855
0	6340	524576.573347952253	1783.0766765401
0	6351	525540.983569482378	2206.7382371519
0	6358	525908.620828762687	1899.6922922786
0	6367	526939.033643575421	2082.3459402658
0	6376	527668.335072649679	1981.1675882433
0	6385	528321.646880870721	1797.3033134826
0	6398	529179.12262617614	1984.1535254382
0	6407	529667.776193562931	1750.6709863432
0	6412	530121.800054004452	1744.3182177376
0	6421	530660.583786712995	1481.4611605369
0	6432	531793.730996036938	2125.954802474
0	6443	532610.909769125319	2279.5792534947
0	6452	533502.524879761077	2457.2308385745
0	6461	534123.270100448317	2302.9985344503
0	6470	534796.382959093935	2185.4731899686
0	6477	535337.309955619312	1834.7850758582
0	6488	536197.102774260602	2073.8326738123
0	6497	537027.83281258311	2231.4498534892
0	6504	537497.291416302359	1982.008313667
0	6511	537920.067551499269	1722.9647772387
0	6522	539176.305804541371	2148.4729919583
0	6531	539874.924798170141	2303.9279746357
0	6538	540755.664718151129	2304.9603423569
0	6549	541525.562883261627	2176.5485369135
0	6556	542174.631244735829	1954.7223642468
0	6565	543243.153853062576	2294.0267742611
0	6574	544021.86132688079	2247.3857113626
0	6585	544954.295769101046	2399.8947431333
0	6592	545391.468265419863	2045.3677186277
0	6603	546470.271407486908	2279.4040240813
0	6614	547293.093572650143	2333.8474009652
0	6623	548059.257543319875	2328.9046799764
0	6630	548738.47391232852	2146.3211375289
0	6641	549670.026306202674	2376.9327335525
0	6648	550306.804925389627	2247.5473820698
0	6659	551181.975500984157	2377.6810424868
0	6664	551695.29159204107	2025.2652858384
0	6675	552583.957681199576	2209.3272025231
0	6682	553250.118395872454	2068.1428948883
0	6695	554205.361253349151	2216.4807157125
0	6704	554820.637789322104	2133.9780716691
0	6713	555432.458268245723	1970.7144781016
0	6722	555862.102799350437	1656.7415460013
0	6731	556637.420812156093	1816.783022834
0	6736	557267.963481601369	1835.5052133556
0	6749	558207.937637949404	2345.834838599
0	6758	558868.098378041801	2230.6775658857
0	6763	559232.445632619825	1863.9911206439
0	6774	559856.125060888049	1648.1874229386
0	6781	560627.453715121415	1759.3553370796
0	6792	561457.103614322883	2142.8793936968
0	6803	562423.849238315638	2292.6721454132
0	6808	562851.688154228072	2005.0816624425
0	6821	563661.578017752658	2070.8504474256
0	6830	564419.984854431863	1996.1356161162
0	6837	564924.178254883777	1961.7133590393
0	6846	565715.371427033137	2053.7934092805
0	6853	566549.552519107278	2129.5676646754
0	6866	567139.515177346807	2083.2488281187
0	6873	567671.606447640847	1896.6490116902
0	6880	568367.408715700772	1742.4132479355
0	6889	568718.201347114559	1578.6861697678
0	6900	569806.673020217609	1836.2866030075
0	6911	570630.275285616558	2104.4764478691
0	6920	571353.185533359688	2210.8006424736
0	6925	571833.044514851686	1998.3505611308
0	6936	572560.89225774635	1930.6169721298
0	6947	573335.323898959946	1982.1383656003
0	6952	573711.916795000475	1799.8120780103
0	6965	574585.462465463247	1990.9311373718
0	6972	574961.922040069517	1626.5981411096
0	6979	575523.525573592674	1600.5083823111
0	6990	576281.893437635195	1696.4309721719
0	6997	577409.018075885292	2272.2056264989
0	7008	577889.439419657033	2045.5875709187
0	7017	578396.525413636158	1710.2598357014
0	7024	579078.899699449579	1573.6912633292
0	7037	580280.617662705521	2236.1165592447
0	7046	581130.389624834101	2188.7676298153
0	7053	581622.872986737679	2115.1763269678
0	7064	582754.654294112738	2474.0366314072
0	7073	583556.028543412726	2425.6389185786
0	7080	583964.906383026432	1976.7288529314
0	7087	584462.554245488759	1707.899951376
0	7096	585840.251784352626	2284.2232409399
0	7109	586976.83277106848	2571.3999312837
0	7118	587837.480041058775	2593.0835308973
0	7125	588618.360966118094	2501.5423803125
0	7132	589384.163611941081	2407.3308408726
0	7145	590347.352076368447	2509.8720353097
0	7154	591050.780216138851	2357.9705413431
0	7159	591654.955025855493	2206.2279688194
0	7172	592591.939115943429	2244.587039575
0	7177	593170.053922059056	2119.2737059202
0	7188	594043.114021886182	2185.6822773814
0	7195	594424.244809895796	1832.3056939524
0	7204	595154.673210997177	1731.2359807547
0	7215	595994.933900702787	1871.4844678994
0	7224	596687.640331406189	2138.261195831
0	7235	597621.517464704854	2283.0016200431
0	7242	598328.845618106467	2300.0795176718
0	7251	599007.914530718741	2151.9435587805
0	7258	599408.620581915644	1787.1031172108
0	7267	599980.583637300921	1550.3635728266
0	7280	600846.255046734629	1760.5791091919
0	7289	601708.144195564134	1973.9622192923
0	7294	602306.187570607333	1935.8620356303
0	7305	603292.657115729569	2446.4020689949
0	7312	603772.417080542116	2064.272884978
0	7325	604617.523061251311	2089.3219130114
1	3129	260228.263062424976	346
1	3138	261171.500035654772	347
1	3145	261746.526719396952	348
1	3158	262927.280940022338	349
1	3165	263602.121290611122	350
1	3176	264402.833437873069	351
1	3181	264842.545348824952	352
1	3190	265629.95813875461	353
1	3201	266629.337714239974	354
1	3210	267424.398967204635	355
1	3217	268178.498951531965	356
1	3226	268714.871709840391	357
1	3235	269341.761571308616	358
1	3246	270165.830215299521	359
1	3253	270553.473274363224	360
1	3262	271286.255148611982	361
1	3273	272016.6191338096	362
1	3282	272814.837981993351	363
1	3291	273645.92361766847	364
1	3302	274231.582847563569	365
1	3309	274915.53394049408	366
1	3316	275491.323474934344	367
1	3327	276438.4344101418	368
1	3336	277309.701059991513	369
1	3347	278176.598095754181	370
1	3354	278676.52392424645	371
1	3361	279165.715225646292	372
1	3370	279971.875899424796	373
1	3383	281237.709675868994	374
1	3388	281859.462668839863	375
1	3397	282365.742869116386	376
1	3408	283514.321026671698	377
1	3417	284243.601287947989	378
1	3424	284939.822804555318	379
1	3435	285819.652031455211	380
1	3446	286704.570618784077	381
1	3453	287258.378283027581	382
1	3460	287664.41795686262	383
1	3469	288167.869840236402	384
1	3478	288765.272750146709	385
1	3491	289747.951472969748	386
1	3496	290096.814653417118	387
1	3507	290996.034581679873	388
1	3518	291509.57979122179	389
1	3523	292252.077168831624	390
1	3532	292820.639727870024	391
1	3541	293589.245865494036	392
1	3550	294000.970915658422	393
1	3563	295248.687684629135	394
1	3568	295557.154035754524	395
1	3577	296441.443119943165	396
1	3586	297077.600706322142	397
1	3595	297748.556344024861	398
1	3604	298329.94698537516	399
1	3615	299749.309371365258	400
1	3624	300092.016925988743	401
1	3631	300690.903764823476	402
1	3644	301907.263694191376	403
1	3649	302209.209878509889	404
1	3658	303091.778326593364	405
1	3671	303923.680987721333	406
1	3676	304236.852641729662	407
1	3685	304791.44042534756	408
1	3696	305886.803741985956	409
1	3705	306524.422161374265	410
1	3716	307512.348015233899	411
1	3721	307837.365111848364	412
1	3732	309028.058318188439	413
1	3739	309574.109630472983	414
1	3750	310638.916957983773	415
1	3757	311060.384143330182	416
1	3770	312359.873307589467	417
1	3775	312696.427006786715	418
1	3788	314090.707918955039	419
1	3793	314517.384418984901	420
1	3802	314987.539494037654	421
1	3811	316141.313830297467	422
1	3822	316973.96303946155	423
1	3829	317379.179653432247	424
1	3842	318673.854903783676	425
1	3849	319280.142429610741	426
1	3856	319712.4700568151	427
1	3865	320554.274094058228	428
1	3878	321884.906257130232	429
1	3885	322593.524517724317	430
1	3892	322996.090440731522	431
1	3903	323838.380435435128	432
1	3912	324543.272017361623	433
1	3919	325287.081503123071	434
1	3928	325993.086074385819	435
1	3939	326986.563326837521	436
1	3948	327910.271237650912	437
1	3959	328584.995743213247	438
1	3968	329421.739004971485	439
1	3977	330159.097010549183	440
1	3982	330494.811742007758	441
1	3991	330995.977815287213	442
1	4000	332001.825374783973	443
1	4011	332906.063215294878	444
1	4020	333487.013074150334	445
1	4029	334218.416307494069	446
1	4038	334958.935057930674	447
1	4047	335341.518620867308	448
1	4056	336155.811821250271	449
1	4063	336574.718141835209	450
1	4076	337884.470491949496	451
1	4085	338774.852320225937	452
1	4090	339310.554535081638	453
1	4103	340387.968878774	454
1	4112	341246.366838365821	455
1	4117	341650.172592652989	456
1	4126	342064.98035257685	457
1	4135	342881.920812930939	458
1	4144	343692.423462728066	459
1	4157	344724.244286399363	460
1	4164	345477.959730383037	461
1	4171	345956.525139464093	462
1	4184	346796.77645540799	463
1	4189	347252.202029898791	464
1	4198	348173.809128021849	465
1	4211	349250.863594701541	466
1	4220	349776.440071268035	467
1	4227	350422.193438932328	468
1	4234	350849.724670266761	469
1	4243	351409.829637128889	470
1	4252	352147.629766305937	471
1	4265	353441.692948574229	472
1	4270	353819.188857497676	473
1	4279	354508.427537418931	474
1	4288	355116.200512787356	475
1	4301	356154.641312034831	476
1	4306	356890.830532740832	477
1	4315	357465.00662737529	478
1	4324	357976.335653057352	479
1	4333	358823.257604520798	480
1	4344	359843.762609409198	481
1	4351	360694.217849755689	482
1	4360	361352.391589293286	483
1	4373	362354.892471106753	484
1	4380	363019.65722925964	485
1	4391	363944.010320445553	486
1	4400	364559.967188257754	487
1	4407	365118.823491269753	488
1	4418	365927.68744379285	489
1	4423	366245.505673019246	490
1	4434	366966.47442765537	491
1	4441	367511.006769351691	492
1	4454	368653.563830070227	493
1	4459	369189.203168498382	494
1	4472	369959.314389852837	495
1	4479	370426.827005669505	496
1	4488	371150.597602129012	497
1	4497	372033.093691896677	498
1	4504	372569.803259242356	499
1	4517	373897.065159771622	500
1	4526	374512.414392549575	501
1	4533	374869.46518602784	502
1	4540	375481.087785679877	503
1	4551	376145.707687642456	504
1	4562	376924.950182670758	505
1	4569	377424.392184242637	506
1	4578	378144.638541340859	507
1	4587	378727.906284900413	508
1	4596	379475.565311824934	509
1	4603	379913.590451516242	510
1	4612	380834.508603019669	511
1	4623	381727.114503085643	512
1	4626	382144.335465179786	513
1	4643	383598.865244071959	514
1	4650	384296.424100175528	515
1	4657	385043.523492151899	516
1	4666	385521.252943715108	517
1	4679	386849.459206173225	518
1	4686	387398.242793278797	519
1	4697	388463.982164673536	520
1	4702	389020.381884556293	521
1	4713	390117.726292787148	522
1	4724	390956.931962538539	523
1	4733	391827.921632397948	524
1	4742	392465.71931093934	525
1	4747	392980.791353154956	526
1	4758	394173.983063595397	527
1	4769	394790.041006961865	528
1	4778	395588.343921303777	529
1	4783	395889.474172890214	530
1	4792	396983.406707597924	531
1	4801	397426.545405434472	532
1	4812	398394.235360482736	533
1	4819	399027.983059873832	534
1	4828	399540.45075215402	535
1	4837	400483.477348554907	536
1	4846	401407.814336987241	537
1	4855	402070.603755069925	538
1	4868	403274.021774623572	539
1	4875	404087.109909765451	540
1	4886	404977.821771428018	541
1	4895	405775.238848803594	542
1	4902	406280.539668398007	543
1	4913	407478.837763750955	544
1	4918	408084.945998573705	545
1	4927	408563.792159501493	546
1	4936	409656.540893437371	547
1	4945	410055.324055161357	548
1	4956	411221.129492623762	549
1	4963	411565.419045416669	550
1	4972	412346.907501015843	551
1	4981	412999.759054882483	552
1	4994	414099.654395878346	553
1	4999	414596.475632255928	554
1	5010	415067.608067812429	555
1	5019	416173.685139371113	556
1	5028	416876.034333603488	557
1	5037	417513.289287267284	558
1	5044	418249.474159302221	559
1	5057	419210.943822842122	560
1	5062	419577.571497950734	561
1	5071	420058.650410268486	562
1	5082	420935.742617351964	563
1	5089	421366.443092096627	564
1	5102	422380.779352784187	565
1	5111	422937.479393743009	566
1	5118	423378.395555075288	567
1	5125	424222.115117730603	568
1	5136	425091.021480644153	569
1	5143	425703.750736545802	570
1	5152	426098.670305544542	571
1	5163	426945.463113673062	572
1	5172	427648.47422358583	573
1	5179	427974.072444951192	574
1	5190	428989.196065021709	575
1	5201	429808.520139846981	576
1	5210	430576.40974028039	577
1	5215	430964.972409093783	578
1	5228	432281.761193694577	579
1	5235	432867.593730054826	580
1	5246	433961.740248743475	581
1	5255	434852.158035105125	582
1	5262	435437.703189533235	583
1	5271	436125.379233481393	584
1	5282	436741.413177084208	585
1	5287	437216.497917752743	586
1	5296	437852.48627839613	587
1	5305	438366.852000821412	588
1	5314	439071.646671323136	589
1	5325	440060.753337247328	590
1	5332	440477.111219801039	591
1	5345	441581.106645427674	592
1	5350	441906.968975393131	593
1	5361	442829.22328999269	594
1	5368	443225.772066134989	595
1	5379	444733.896096982092	596
1	5388	445468.056171946258	597
1	5397	446182.106856163622	598
1	5404	446556.003386713595	599
1	5415	447886.779969278754	600
1	5422	448407.495221821622	601
1	5435	449520.691052265496	602
1	5444	450011.822005547614	603
1	5449	450582.65362023379	604
1	5460	451237.053929502176	605
1	5471	452198.346135579081	606
1	5476	452544.055004976721	607
1	5489	453707.279558200421	608
1	5498	454355.392346251788	609
1	5507	455044.723480939897	610
1	5516	455914.179505733805	611
1	5523	456329.460417805271	612
1	5530	456737.479281658338	613
1	5539	457605.567617621305	614
1	5552	458878.339187661218	615
1	5559	459707.281895913216	616
1	5568	460305.229859752613	617
1	5577	461253.381240880149	618
1	5584	461711.194333294439	619
1	5593	462351.562461582976	620
1	5604	463226.939560845527	621
1	5615	463945.049425028296	622
1	5620	464302.893463941322	623
1	5633	465615.275853825765	624
1	5638	466083.876006072419	625
1	5651	467349.113112827795	626
1	5660	468133.776244008946	627
1	5669	468853.479279018971	628
1	5678	469460.896481294217	629
1	5687	469876.853184727984	630
1	5696	470710.619275504755	631
1	5701	471109.709174372288	632
1	5710	471822.114626644211	633
1	5721	472323.322395561295	634
1	5728	472900.307345157521	635
1	5739	473807.207888737353	636
1	5746	474976.914323307606	637
1	5757	475665.522930957409	638
1	5766	476210.829882463472	639
1	5773	476916.0309121013	640
1	5784	477747.949270438434	641
1	5793	478629.467467870594	642
1	5802	479331.678794324429	643
1	5811	480154.772331425951	644
1	5820	480889.313691202582	645
1	5829	481570.850018039377	646
1	5836	482200.640701130063	647
1	5845	482929.672325262831	648
1	5858	483950.17832228917	649
1	5863	484526.073775487052	650
1	5874	485251.103787962379	651
1	5883	486089.688930055157	652
1	5890	486588.125781342418	653
1	5901	487476.961079472707	654
1	5912	488492.258944502132	655
1	5919	488935.812967596607	656
1	5930	490212.156325299325	657
1	5939	490920.590231800484	658
1	5948	491784.419718571039	659
1	5953	492165.12097567323	660
1	5966	493107.433110661837	661
1	5973	493976.124469377133	662
1	5982	494439.496599650043	663
1	5989	494996.142957452717	664
1	6002	496100.901388702947	665
1	6011	496827.958484133738	666
1	6016	497477.04800879586	667
1	6027	498297.270204545963	668
1	6036	498931.96189189333	669
1	6043	499489.715764112803	670
1	6052	500655.935055390034	671
1	6061	501261.73535389829	672
1	6070	502338.28967129815	673
1	6081	503265.233960375223	674
1	6088	503791.485033882815	675
1	6097	505028.357611410353	676
1	6106	505556.890463596243	677
1	6115	506277.263958379661	678
1	6124	506941.526819625903	679
1	6137	507841.64663641717	680
1	6146	508603.203454194625	681
1	6153	509377.162344055285	682
1	6160	509894.276001630385	683
1	6171	510724.599027307738	684
1	6180	511604.376971628551	685
1	6187	512097.0555474982	686
1	6198	512942.247958481346	687
1	6207	513861.364537104999	688
1	6214	514455.410103779321	689
1	6223	514985.729701118578	690
1	6236	516144.85185113739	691
1	6245	516838.787486404216	692
1	6250	517262.060481682455	693
1	6263	518177.467268379441	694
1	6270	518886.643605586177	695
1	6277	519187.041124608403	696
1	6286	520094.553972501343	697
1	6295	520931.037846067956	698
1	6306	521962.590908585152	699
1	6315	522772.089847130737	700
1	6326	523334.245332330501	701
1	6331	523636.806519934943	702
1	6340	524576.573347952253	703
1	6351	525540.983569482378	704
1	6358	525908.620828762687	705
1	6367	526939.033643575421	706
1	6376	527668.335072649679	707
1	6385	528321.646880870721	708
1	6398	529179.12262617614	709
1	6407	529667.776193562931	710
1	6412	530121.800054004452	711
1	6421	530660.583786712995	712
1	6432	531793.730996036938	713
1	6443	532610.909769125319	714
1	6452	533502.524879761077	715
1	6461	534123.270100448317	716
1	6470	534796.382959093935	717
1	6477	535337.309955619312	718
1	6488	536197.102774260602	719
1	6497	537027.83281258311	720
1	6504	537497.291416302359	721
1	6511	537920.067551499269	722
1	6522	539176.305804541371	723
1	6531	539874.924798170141	724
1	6538	540755.664718151129	725
1	6549	541525.562883261627	726
1	6556	542174.631244735829	727
1	6565	543243.153853062576	728
1	6574	544021.86132688079	729
1	6585	544954.295769101046	730
1	6592	545391.468265419863	731
1	6603	546470.271407486908	732
1	6614	547293.093572650143	733
1	6623	548059.257543319875	734
1	6630	548738.47391232852	735
1	6641	549670.026306202674	736
1	6648	550306.804925389627	737
1	6659	551181.975500984157	738
1	6664	551695.29159204107	739
1	6675	552583.957681199576	740
1	6682	553250.118395872454	741
1	6695	554205.361253349151	742
1	6704	554820.637789322104	743
1	6713	555432.458268245723	744
1	6722	555862.102799350437	745
1	6731	556637.420812156093	746
1	6736	557267.963481601369	747
1	6749	558207.937637949404	748
1	6758	558868.098378041801	749
1	6763	559232.445632619825	750
1	6774	559856.125060888049	751
1	6781	560627.453715121415	752
1	6792	561457.103614322883	753
1	6803	562423.849238315638	754
1	6808	562851.688154228072	755
1	6821	563661.578017752658	756
1	6830	564419.984854431863	757
1	6837	564924.178254883777	758
1	6846	565715.371427033137	759
1	6853	566549.552519107278	760
1	6866	567139.515177346807	761
1	6873	567671.606447640847	762
1	6880	568367.408715700772	763
1	6889	568718.201347114559	764
1	6900	569806.673020217609	765
1	6911	570630.275285616558	766
1	6920	571353.185533359688	767
1	6925	571833.044514851686	768
1	6936	572560.89225774635	769
1	6947	573335.323898959946	770
1	6952	573711.916795000475	771
1	6965	574585.462465463247	772
1	6972	574961.922040069517	773
1	6979	575523.525573592674	774
1	6990	576281.893437635195	775
1	6997	577409.018075885292	776
1	7008	577889.439419657033	777
1	7017	578396.525413636158	778
1	7024	579078.899699449579	779
1	7037	580280.617662705521	780
1	7046	581130.389624834101	781
1	7053	581622.872986737679	782
1	7064	582754.654294112738	783
1	7073	583556.028543412726	784
1	7080	583964.906383026432	785
1	7087	584462.554245488759	786
1	7096	585840.251784352626	787
1	7109	586976.83277106848	788
1	7118	587837.480041058775	789
1	7125	588618.360966118094	790
1	7132	589384.163611941081	791
1	7145	590347.352076368447	792
1	7154	591050.780216138851	793
1	7159	591654.955025855493	794
1	7172	592591.939115943429	795
1	7177	593170.053922059056	796
1	7188	594043.114021886182	797
1	7195	594424.244809895796	798
1	7204	595154.673210997177	799
1	7215	595994.933900702787	800
1	7224	596687.640331406189	801
1	7235	597621.517464704854	802
1	7242	598328.845618106467	803
1	7251	599007.914530718741	804
1	7258	599408.620581915644	805
1	7267	599980.583637300921	806
1	7280	600846.255046734629	807
1	7289	601708.144195564134	808
1	7294	602306.187570607333	809
1	7305	603292.657115729569	810
1	7312	603772.417080542116	811
1	7325	604617.523061251311	812

