version 2
run Pipelined_3Teachers-21-20190105-10:57:22-25956
attr configname Pipelined_3Teachers
attr datetime 20190105-10:57:22
attr experiment Pipelined_3Teachers
attr inifile ../simulations/omnetpp.ini
attr iterationvars "$0=\"uniform\""
attr iterationvarsf uniform-
attr measurement "$0=\"uniform\""
attr network PipelinedExamSession
attr processid 25956
attr repetition 21
attr replication #21
attr resultdir results
attr runnumber 21
attr seedset 21
param **.teachersNumber 3
param **.answerTimeDistribution "\"uniform\""
param **.minUniform 300
param **.maxUniform 900
param **.scaleLognormal 6.2854
param **.shapeLognormal 0.4724

vector 0 PipelinedExamSession examinationTime:vector ETV
attr source examFinished
vector 1 PipelinedExamSession studentID:vector ETV
attr source student
0	3136	260088.075072225197	1917.9089148995
0	3145	261071.81161749178	2062.2512576636
0	3158	262243.837739713503	2375.3865480423
0	3165	262840.670841559781	2172.9659111705
0	3176	263823.507174756391	2441.5116304066
0	3181	264402.837373316301	2158.9996336028
0	3192	265216.355757415308	2115.184402233
0	3199	265873.836600920199	2050.3294261638
0	3212	266570.811891602365	1957.6568090357
0	3219	267207.531850459067	1789.7152814548
0	3228	267882.205824600546	1690.2184804436
0	3235	268243.199090939029	1672.3871993367
0	3244	269322.613653447492	2070.5760390032
0	3257	270674.152575340135	2570.6481509842
0	3264	271351.923065632595	2414.8748202715
0	3271	271804.37420275995	1974.7261057142
0	3284	273159.181442298009	2485.0288669579
0	3291	273678.102601692094	2176.7338628881
0	3300	274366.187958838432	2097.9749117978
0	3307	274809.712894493728	1650.5314521957
0	3318	275915.575224626823	2015.6426668167
0	3327	276704.07801093535	2320.1555797365
0	3338	277654.400352062671	2474.6668724343
0	3345	278118.170928815393	2053.5427629948
0	3356	278975.301132677136	2094.0905424301
0	3365	279658.710651565356	2004.3102995027
0	3370	280116.558702941997	1977.6884052437
0	3379	280982.092047901837	2006.7909152247
0	3388	281760.342167224748	2101.6315156594
0	3399	282651.06907258743	2149.4679587893
0	3406	283495.793690392762	2177.9826296959
0	3419	284501.98772689329	2313.9484627638
0	3426	284890.345099149286	2089.7286904044
0	3435	286080.578782176613	2410.0477801636
0	3442	286520.099411532297	2018.111684639
0	3451	287188.391337683439	1802.2560079582
0	3462	288204.591954639196	1931.362024555
0	3469	288783.254322689041	1946.1719681975
0	3478	289254.625320062055	1751.2891254388
0	3487	290187.666561361417	1950.9961108211
0	3498	291006.359261926278	2090.483959252
0	3505	291514.578796690344	1708.5456144065
0	3518	292600.728802196697	2115.2128351852
0	3527	293217.513809585959	2140.9361850936
0	3534	293659.404390351862	1894.3711102009
0	3541	294165.950620640084	1565.2218184434
0	3552	295109.145785775051	1891.6319761891
0	3559	295862.083531636761	1932.5330960099
0	3572	296824.92282511668	2416.5139043704
0	3577	297269.187893718497	1976.6095498111
0	3588	298070.564806088822	2042.6526120398
0	3595	298514.443419640901	1689.5205945242
0	3606	299384.490349609421	1804.4881435577
0	3617	300402.791708847525	2182.7434839215
0	3622	300864.549227245169	1963.8174103573
0	3633	301713.12494636515	2066.9493332505
0	3640	302248.085620533692	1845.2939116862
0	3649	302687.644783454034	1679.022152815
0	3660	303650.918657518941	1750.6718243938
0	3669	304326.446602866071	2009.6262104809
0	3676	304973.33424920218	1812.6403600909
0	3685	305511.053942469898	1730.9365779161
0	3694	306167.465715855378	1760.5255084578
0	3703	306894.887309661154	1634.6093304455
0	3712	307755.704840272683	1957.4962397106
0	3723	308503.95827195609	1886.2022414804
0	3730	308904.370119469258	1401.9095038064
0	3739	309632.424244098384	1644.4872432388
0	3748	310730.864965589735	2134.0169276576
0	3759	311668.290158920007	2355.8733887505
0	3770	312581.349142966809	2479.9295271747
0	3777	313393.823609361442	2421.2353901938
0	3786	313750.107442354801	1994.1314017866
0	3795	314673.275481490435	2091.9263385236
0	3806	315275.092004751803	1866.3338273764
0	3811	315589.063367061333	1751.391944848
0	3820	316540.977408969792	1866.0998387262
0	3829	317601.42877497712	2326.3367702253
0	3838	318140.905860112997	1989.5883814897
0	3851	318898.108541127311	2106.4552203286
0	3858	319625.246473588066	1964.8295500316
0	3867	320310.175347514467	1903.6653358955
0	3874	321011.158296698721	2113.0497555714
0	3883	321437.280467245745	1639.7158802021
0	3894	322455.657776305469	1786.3211261574
0	3905	323410.531646618637	2171.0258699488
0	3910	323731.706559425237	1947.0112420153
0	3921	324821.719501912612	2169.2459496204
0	3928	325258.101824345085	1847.5701777264
0	3941	326346.013481821882	2333.804681059
0	3950	327221.891326596978	2334.9277735222
0	3959	327895.241108676436	2353.5066221841
0	3964	328240.485842898505	1894.4723610766
0	3973	328810.834555607307	1588.9432290103
0	3984	329733.465976919997	1838.2248682436
0	3987	330156.161927618105	1435.2240228094
0	4002	331533.03788336927	2182.3811011389
0	4013	332457.630329439434	2225.1461511478
0	4018	332892.898473143595	1936.1022844445
0	4031	334088.251512357983	2472.9187228717
0	4038	334945.371551765147	2487.7412223257
0	4045	335384.891228238138	2038.4498409927
0	4058	336464.52036523262	2376.2688528746
0	4065	337169.43328916097	2184.822248714
0	4072	337711.85276317412	2047.2355667967
0	4083	338756.195520563069	2291.6751553304
0	4090	339155.698619037885	1808.1473938655
0	4103	340194.234992796573	2071.8087944202
0	4110	340585.390009358543	1827.7864809148
0	4117	341187.552011618408	1872.4139110185
0	4126	341585.72341063993	1391.4884178434
0	4135	342442.075823619979	1848.0942472816
0	4146	342962.120157899353	1687.205184577
0	4153	343363.734936341661	1252.2221005987
0	4162	344117.532983561996	1551.2835128233
0	4167	344588.604462845269	1340.0895028375
0	4184	346076.031265547517	2260.3785733692
0	4191	346431.347064999881	1776.8248203211
0	4202	347859.53700179236	2641.4131921716
0	4211	348725.523698050547	2649.492432503
0	4218	349269.647888001073	2306.8317855243
0	4227	349980.303341941927	2120.7663401496
0	4236	350658.352313144152	1932.8286150936
0	4243	351348.991917818803	1962.6811045222
0	4252	352206.997728254665	2098.7398792058
0	4261	352744.986639032159	1795.9923556075
0	4270	353720.344234770183	1873.0242916849
0	4279	354396.624142164384	1826.8716950901
0	4288	355202.727647032609	1776.4763590414
0	4297	355866.57225578094	1921.9097660389
0	4308	356924.268401647007	2142.0249110553
0	4315	357433.865329809508	1881.8695146125
0	4324	358370.130348019323	1950.4066675901
0	4337	359306.301534175894	2243.6709699221
0	4344	359943.686629459283	2077.1280011628
0	4351	360421.851788973457	1742.474993784
0	4362	360981.627007853261	1675.3254736774
0	4369	361714.594693807906	1591.6699554306
0	4380	362759.53447208742	2141.6143359616
0	4391	363583.417080855019	2221.943179518
0	4398	364328.881121892504	2150.8924168535
0	4405	364751.131216250382	1971.9644823577
0	4414	365529.922652291156	1946.5055714361
0	4427	366727.933920593954	2334.6656670794
0	4436	367298.982440773419	2045.3112470917
0	4445	368188.894583098612	2352.881755773
0	4450	368601.762695750243	1873.8287751563
0	4463	369550.25436957369	2251.2719288003
0	4468	369877.425216184951	1688.5306330863
0	4481	371318.779740761988	2352.3292865139
0	4486	371738.196523999818	2187.9421544261
0	4499	372568.437741603725	2120.480057504
0	4506	373283.645715890475	1964.8659751285
0	4515	373725.441986974352	1775.5461696535
0	4526	374509.462405135878	1941.0246635322
0	4533	375128.298178967111	1824.4911091402
0	4544	375886.334595317044	1985.3035757784
0	4549	376471.24528535644	1961.7828802206
0	4558	377088.984180986904	1785.2891173214
0	4567	377944.269433803879	2057.9348384868
0	4578	378780.639208573871	2034.1773101594
0	4585	379136.994341248669	1598.7413956784
0	4598	380352.333705034131	2218.5086448211
0	4603	380787.355330400193	1845.4015874304
0	4614	381637.470279447759	1919.510663487
0	4623	382649.592973943824	2297.2592689097
0	4630	383546.242765104422	2312.0087728836
0	4643	384585.583764407808	2455.5842800532
0	4648	385104.561485024193	2246.7957097571
0	4657	385507.700943527768	1779.1604710277
0	4666	386109.611662896374	1524.0278984886
0	4679	387394.897178281123	2121.0064502433
0	4686	387998.379956558371	1933.7257627398
0	4693	388645.707285264531	2048.4310233034
0	4706	389536.98816262188	2142.0909843408
0	4715	390338.941225642363	2127.8213110752
0	4720	391064.4818290137	2307.3413331527
0	4729	391543.658445635836	2006.670283014
0	4740	392333.714772155533	1994.7735465132
0	4747	392778.806933574403	1554.7843830194
0	4758	393728.385327849562	1885.2929564193
0	4765	394326.041659992213	1989.9834176525
0	4774	394967.015790101166	1798.2370823622
0	4783	395571.625514980431	1743.3450166136
0	4796	396476.87100442129	1970.3733138274
0	4805	397279.394629178595	2050.7012081333
0	4812	397919.683761242803	2318.8924823888
0	4821	398657.92441363449	2181.0534092132
0	4830	399331.874169968095	2052.4795407895
0	4839	399848.734438698766	1785.865287669
0	4848	400876.369783189175	2140.6637188978
0	4857	401600.653560971869	2198.3687668573
0	4864	402432.378967199502	2161.9134355802
0	4873	402907.819416839657	1740.3393098619
0	4884	404072.031646175337	2226.7071192618
0	4891	404388.675032509518	1789.5648001693
0	4904	405352.09145620468	1867.5019633491
0	4913	405957.334215100882	1747.1143242437
0	4922	406660.000307718319	1883.8045899756
0	4929	407210.00448320995	1857.9130270053
0	4936	407528.553336113718	1571.2191210128
0	4949	408720.158642716733	2060.1583349984
0	4956	409163.751942710978	1798.1792304665
0	4967	409862.089638412026	1848.4873477835
0	4972	410276.875642826808	1556.7170001101
0	4981	410733.186233276529	1553.9454373531
0	4990	411636.842774413553	1774.7531360015
0	4999	412269.348517851932	1771.4315241203
0	5010	413544.590502977398	2198.5673194751
0	5017	414266.077993204844	2020.7124256063
0	5030	415328.285768860979	2238.3810136467
0	5035	415632.123244833229	1869.6330742445
0	5046	416499.06504540707	1843.9105507918
0	5055	417392.659459356247	2064.3736904953
0	5064	417891.41080942939	2057.3732726276
0	5071	418530.526654142914	1841.407625936
0	5080	419409.927896456821	1957.4972132687
0	5089	420117.25751738998	2112.8333609551
0	5098	421038.19764750081	2274.6994358953
0	5111	422120.745511958403	2536.3871409092
0	5118	422527.475352818174	2067.4528602976
0	5127	423343.182579288287	2013.883079309
0	5134	424180.420116568012	2059.6746046096
0	5145	425087.938783597229	2324.2176193278
0	5154	425908.250546688242	2272.0839282498
0	5161	426574.817717447905	2057.6838857029
0	5174	427636.299265455483	2293.0510913953
0	5183	428501.240215217723	2441.0040336661
0	5188	429062.720092479168	2280.6609129533
0	5199	429837.423230940504	2201.123965485
0	5206	430601.211143005667	2099.9709277879
0	5215	431237.046643020613	1913.4160175454
0	5224	431643.067493755398	1486.3213917241
0	5235	432461.431627208394	1436.2881207839
0	5244	432917.228477541384	1470.1249758247
0	5253	433775.002300366786	1733.1194492988
0	5262	434865.663854638143	2351.1032500304
0	5269	435289.903456997155	1952.4416817818
0	5278	436059.629168082057	1925.0585610978
0	5287	436819.227612577407	1849.395312136
0	5298	438226.47101129408	2429.6785066836
0	5309	438910.686100926278	2271.8886095099
0	5318	439550.754003832145	2020.0840689708
0	5325	440201.029258640511	1935.9806589782
0	5334	440952.843069378315	2042.156968452
0	5345	441896.094810962706	2345.3408071306
0	5354	442671.258003730356	2292.2288669273
0	5363	443413.229187950521	2244.2046571523
0	5372	444034.380564652412	2138.2857536897
0	5381	444555.904879700421	1884.6468759701
0	5386	445243.912250222667	1830.6830622721
0	5397	446249.728385824739	2215.3478211723
0	5404	446826.75697566013	2270.8520959597
0	5417	447818.317196331947	2383.6899530143
0	5426	448425.7855230477	2137.5587109011
0	5431	448754.798898194015	1728.1682199799
0	5442	449935.915510682419	2117.5983143505
0	5453	450865.491266967758	2439.7057439201
0	5460	451316.157138487353	2048.392191343
0	5469	452174.663562979578	2144.3821511697
0	5476	452559.476224612474	1693.9849576447
0	5485	453389.676663419261	2017.0662931167
0	5494	454004.084543092205	1747.4261668045
0	5507	455387.273160461366	2442.9792375304
0	5514	456029.930502176314	2294.0147866029
0	5521	456594.765053177282	1985.1757544093
0	5534	457686.252965033083	2298.9798045717
0	5543	458489.007571991562	2450.0690201763
0	5548	459030.924955336406	2176.5358757693
0	5557	459819.782792357757	2133.5298273247
0	5570	460849.429202266066	2360.4216302745
0	5577	461292.662329645856	1926.8387802411
0	5588	461948.280008649482	1831.9761946332
0	5597	462792.563270079001	1943.1340678129
0	5604	463530.911094741925	2115.9368209541
0	5613	464358.277266472607	2409.9972578231
0	5620	464991.348599921941	2198.7853298429
0	5629	465829.420575918659	2182.7545117121
0	5638	466417.885081702872	2034.9287043326
0	5649	467647.892374824762	2429.3162547983
0	5656	468103.287557791948	1994.5108930115
0	5665	468692.057482665433	1747.8687410709
0	5674	469797.550984891161	2052.2129399702
0	5685	470663.127984618798	2060.9737356193
0	5694	471329.936429439143	2305.7024235372
0	5701	471999.146387307004	2088.3737321477
0	5712	473058.692514896423	2346.4389666449
0	5723	473905.284118652374	2359.9649929907
0	5732	474701.725005917281	2268.1742562912
0	5737	475322.520146844939	2199.7019399889
0	5746	475736.451174365387	1831.167055713
0	5759	476727.820019843087	2026.0950139258
0	5768	477617.69731566313	2099.3785669561
0	5777	478352.911719772995	2174.9429037329
0	5784	478740.850985236496	2013.0309653934
0	5795	479830.406924849406	2212.7096091863
0	5800	480133.22221445854	1780.3104946855
0	5811	481093.797035934434	1956.3353329897
0	5818	481734.142521070347	1903.7355962209
0	5827	482385.527058457986	1872.6450062357
0	5836	483265.69986823018	1930.0644936506
0	5845	484031.115051778064	2160.4324506596
0	5856	484780.860729329318	2027.285819035
0	5863	485183.01985678266	1543.5060258955
0	5876	486645.13616412881	2317.2846510541
0	5883	487208.42861845161	2108.9544916525
0	5892	488105.766552267626	2243.6778585892
0	5903	488753.135342057824	2107.999177929
0	5908	489256.046300707415	1954.4226607773
0	5919	489963.280729763239	1828.2925726846
0	5926	490387.005806202098	1633.8704641443
0	5935	491611.745186056972	2120.1365633402
0	5944	492144.349503144653	1914.8056411184
0	5955	493326.08510912399	2284.1264739633
0	5964	493939.654151257158	2007.4751461856
0	5973	494799.881304195181	2010.0414146204
0	5980	495425.641015078903	2090.4897454195
0	5991	496256.826717825638	2152.9316986911
0	6002	497059.744938556136	2237.5928990543
0	6007	497388.396374601902	1729.0204938501
0	6018	498704.448808450283	2300.8834120352
0	6029	499502.270416868882	2442.5254783127
0	6034	500229.05279248956	2311.7340761237
0	6047	500954.253227496551	2199.2501449306
0	6056	501790.283966995807	2288.0135501269
0	6061	502101.979239983515	1785.846078163
0	6070	503035.093203652682	2080.8399761561
0	6083	503945.37583985369	2155.0918728579
0	6090	504339.203752018542	1761.911207065
0	6099	505220.973181771146	1877.9983333312
0	6106	506112.247763481022	2166.8719236273
0	6115	506486.623821174756	1704.7793674283
0	6128	507897.289939038486	2313.8049395755
0	6133	508197.943474911184	1781.7761257756
0	6142	508871.482447162301	1861.701605469
0	6151	510054.677198873864	2157.3872598354
0	6160	510677.887385711105	1918.2644646149
0	6169	511187.934848712788	1770.4926770646
0	6178	511802.953708916933	1500.7061809301
0	6191	512936.199145345048	2107.2565475944
0	6200	513722.739297850088	2158.620916307
0	6207	514500.161408633024	2395.2595316805
0	6218	515127.987139346108	2191.7879940011
0	6223	515433.860171958834	1711.1208741087
0	6236	516755.346009414673	2172.6472232491
0	6243	517439.912351500273	2311.9252121542
0	6250	517923.397715901986	1935.4124803562
0	6263	519080.310535803468	2324.9645263888
0	6270	519799.328007129983	2200.1763854641
0	6279	520589.991910988496	2141.4422763046
0	6286	520976.204464444922	1895.8939286415
0	6295	521761.244007479431	1801.2228077743
0	6308	522813.4502871428	2033.6352311075
0	6313	523503.51666393693	2189.9834382813
0	6322	524213.619052385943	2080.6267922278
0	6331	525009.143237303974	2195.6929501612
0	6340	525673.495297506483	1984.2048022896
0	6351	526341.778987599569	1875.9120441042
0	6362	526899.566394975441	1732.1020045783
0	6367	527497.385917184907	1743.9945977647
0	6380	528427.20015998933	2048.5466777813
0	6389	528990.89744165543	2091.33104668
0	6394	529405.211085453662	1837.9072184209
0	6403	530280.578169878605	1853.3780098893
0	6416	531349.851919105309	2358.9544774499
0	6423	531791.961349127847	2017.728696065
0	6430	532473.223859444293	1932.6339589432
0	6443	533733.604328194666	2383.7524090894
0	6452	534435.039145918596	2292.8988627624
0	6457	534760.403521265868	1904.0408735164
0	6466	535506.609771447289	1773.0054432526
0	6475	536226.49234933782	1791.4532034192
0	6486	537167.85312406722	1973.8440445159
0	6495	538058.322107093442	2147.1536959056
0	6506	538733.609036263112	2331.1845355667
0	6511	539372.703283187036	2089.5788313355
0	6520	539985.166862094809	1813.3346241899
0	6529	540865.479468181763	2131.8704319187
0	6538	541389.920673798803	1783.632534463
0	6551	542501.497011026401	2171.0124459118
0	6558	543069.784499751437	1861.0381828621
0	6569	544127.050797455046	2350.7889113389
0	6574	544639.918771153349	2138.4217601269
0	6583	545267.012936621937	1982.6631052885
0	6592	546429.525954695451	2302.4751572404
0	6603	547225.792081793803	2323.759346595
0	6610	547869.5174602792	2082.1741988417
0	6621	548939.951343555037	2319.9192677625
0	6630	549592.603439698029	2127.5647575036
0	6637	550125.489598000455	1978.0587666202
0	6650	551224.844528641586	2240.620397497
0	6657	551862.199140200426	2067.2859314829
0	6666	552596.529129613226	2256.3041112386
0	6677	553266.489275638049	2041.6447469965
0	6684	554038.246126240154	1973.9470236003
0	6691	554535.004031332245	1854.7449806705
0	6704	555458.939224015956	2192.4499483779
0	6711	555930.157594196533	1881.4726233948
0	6718	556579.317803448101	1876.525539346
0	6731	557728.389056073536	2269.4498320576
0	6738	558362.279314035584	2050.7470790762
0	6745	558908.945743180846	2054.5907942578
0	6756	559580.976749584113	1852.5876935106
0	6765	560438.51931765679	1966.1035073921
0	6772	560985.962404729833	1914.8878703825
0	6781	561544.831218151411	1906.5906189848
0	6792	562695.361642772367	2190.6580089591
0	6799	563661.615637270768	2313.9334046748
0	6812	564639.715190464665	2400.5571477581
0	6821	565188.376672798802	2218.4725073632
0	6828	565857.931643491645	2047.6872101426
0	6835	566283.365059644018	1643.6498691794
0	6848	567440.319221466814	2251.942548668
0	6855	567920.811814628576	2048.3444741461
0	6864	568819.330073660274	2232.4061642401
0	6871	569305.491333128919	1865.1721116621
0	6882	570127.688239049201	2100.8449792396
0	6889	570529.926437465509	1669.2601463757
0	6900	571369.699685974081	1920.1009965967
0	6907	571759.639343339984	1619.8024112731
0	6916	572516.028261836652	1654.9093041569
0	6925	573470.531655382399	2048.5416064505
0	6934	574058.915678272059	1832.6674689073
0	6943	574801.177337486331	1768.6564592645
0	6952	575618.484319187735	1783.5825702176
0	6965	576811.568340333213	2469.0432066098
0	6970	577188.961087167297	1998.2918678317
0	6981	578018.149707745795	2059.3420539983
0	6990	578836.461040237953	2024.8926999047
0	6997	579203.636473836412	1851.0964142159
0	7002	579556.264246674288	1464.5703226794
0	7015	580423.50965389054	1524.8409929685
0	7024	581061.348212929476	1455.6960681919
0	7033	582088.066156161983	2043.0986720603
0	7044	583255.724932160262	2469.1685898229
0	7053	583971.081053372506	2328.475297289
0	7060	584527.294013416428	2106.1327664182
0	7069	585407.070481125298	2130.9392418712
0	7078	586171.852311166036	2029.1376197711
0	7087	586763.807141175526	1915.1769855525
0	7100	588099.404842453111	2408.6920903064
0	7107	588686.496756970916	2099.075801298
0	7114	589407.833812292699	2075.466161035
0	7127	590237.155504524741	2137.7506620716
0	7134	590676.860515633631	1977.2254939657
0	7143	591613.443475356359	2099.2529173382
0	7154	592566.708609648082	2329.5531051233
0	7161	593419.520334340665	2512.3790456448
0	7172	594248.329512309317	2581.0776578262
0	7179	594811.193001782556	2244.4843921345
0	7186	595523.322509089519	2078.4263553098
0	7197	596145.467611262609	1897.1380989533
0	7208	597180.394029384513	2202.0696281455
0	7215	597785.263503855128	2117.4069919623
0	7224	598312.09546294998	2009.2848036904
0	7231	598882.12974853817	1701.7357191537
0	7242	599780.161670548876	1892.5244804006
0	7249	600197.795295110007	1531.9094107021
0	7258	600811.137804156203	1663.7167269364
0	7267	601527.169674262439	1659.0075782966
0	7272	602164.914049347897	1493.7032867689
0	7285	603357.485676789691	1964.5077068824
0	7298	604335.029988968779	2050.0589529052
1	3136	260088.075072225197	347
1	3145	261071.81161749178	348
1	3158	262243.837739713503	349
1	3165	262840.670841559781	350
1	3176	263823.507174756391	351
1	3181	264402.837373316301	352
1	3192	265216.355757415308	353
1	3199	265873.836600920199	354
1	3212	266570.811891602365	355
1	3219	267207.531850459067	356
1	3228	267882.205824600546	357
1	3235	268243.199090939029	358
1	3244	269322.613653447492	359
1	3257	270674.152575340135	360
1	3264	271351.923065632595	361
1	3271	271804.37420275995	362
1	3284	273159.181442298009	363
1	3291	273678.102601692094	364
1	3300	274366.187958838432	365
1	3307	274809.712894493728	366
1	3318	275915.575224626823	367
1	3327	276704.07801093535	368
1	3338	277654.400352062671	369
1	3345	278118.170928815393	370
1	3356	278975.301132677136	371
1	3365	279658.710651565356	372
1	3370	280116.558702941997	373
1	3379	280982.092047901837	374
1	3388	281760.342167224748	375
1	3399	282651.06907258743	376
1	3406	283495.793690392762	377
1	3419	284501.98772689329	378
1	3426	284890.345099149286	379
1	3435	286080.578782176613	380
1	3442	286520.099411532297	381
1	3451	287188.391337683439	382
1	3462	288204.591954639196	383
1	3469	288783.254322689041	384
1	3478	289254.625320062055	385
1	3487	290187.666561361417	386
1	3498	291006.359261926278	387
1	3505	291514.578796690344	388
1	3518	292600.728802196697	389
1	3527	293217.513809585959	390
1	3534	293659.404390351862	391
1	3541	294165.950620640084	392
1	3552	295109.145785775051	393
1	3559	295862.083531636761	394
1	3572	296824.92282511668	395
1	3577	297269.187893718497	396
1	3588	298070.564806088822	397
1	3595	298514.443419640901	398
1	3606	299384.490349609421	399
1	3617	300402.791708847525	400
1	3622	300864.549227245169	401
1	3633	301713.12494636515	402
1	3640	302248.085620533692	403
1	3649	302687.644783454034	404
1	3660	303650.918657518941	405
1	3669	304326.446602866071	406
1	3676	304973.33424920218	407
1	3685	305511.053942469898	408
1	3694	306167.465715855378	409
1	3703	306894.887309661154	410
1	3712	307755.704840272683	411
1	3723	308503.95827195609	412
1	3730	308904.370119469258	413
1	3739	309632.424244098384	414
1	3748	310730.864965589735	415
1	3759	311668.290158920007	416
1	3770	312581.349142966809	417
1	3777	313393.823609361442	418
1	3786	313750.107442354801	419
1	3795	314673.275481490435	420
1	3806	315275.092004751803	421
1	3811	315589.063367061333	422
1	3820	316540.977408969792	423
1	3829	317601.42877497712	424
1	3838	318140.905860112997	425
1	3851	318898.108541127311	426
1	3858	319625.246473588066	427
1	3867	320310.175347514467	428
1	3874	321011.158296698721	429
1	3883	321437.280467245745	430
1	3894	322455.657776305469	431
1	3905	323410.531646618637	432
1	3910	323731.706559425237	433
1	3921	324821.719501912612	434
1	3928	325258.101824345085	435
1	3941	326346.013481821882	436
1	3950	327221.891326596978	437
1	3959	327895.241108676436	438
1	3964	328240.485842898505	439
1	3973	328810.834555607307	440
1	3984	329733.465976919997	441
1	3987	330156.161927618105	442
1	4002	331533.03788336927	443
1	4013	332457.630329439434	444
1	4018	332892.898473143595	445
1	4031	334088.251512357983	446
1	4038	334945.371551765147	447
1	4045	335384.891228238138	448
1	4058	336464.52036523262	449
1	4065	337169.43328916097	450
1	4072	337711.85276317412	451
1	4083	338756.195520563069	452
1	4090	339155.698619037885	453
1	4103	340194.234992796573	454
1	4110	340585.390009358543	455
1	4117	341187.552011618408	456
1	4126	341585.72341063993	457
1	4135	342442.075823619979	458
1	4146	342962.120157899353	459
1	4153	343363.734936341661	460
1	4162	344117.532983561996	461
1	4167	344588.604462845269	462
1	4184	346076.031265547517	463
1	4191	346431.347064999881	464
1	4202	347859.53700179236	465
1	4211	348725.523698050547	466
1	4218	349269.647888001073	467
1	4227	349980.303341941927	468
1	4236	350658.352313144152	469
1	4243	351348.991917818803	470
1	4252	352206.997728254665	471
1	4261	352744.986639032159	472
1	4270	353720.344234770183	473
1	4279	354396.624142164384	474
1	4288	355202.727647032609	475
1	4297	355866.57225578094	476
1	4308	356924.268401647007	477
1	4315	357433.865329809508	478
1	4324	358370.130348019323	479
1	4337	359306.301534175894	480
1	4344	359943.686629459283	481
1	4351	360421.851788973457	482
1	4362	360981.627007853261	483
1	4369	361714.594693807906	484
1	4380	362759.53447208742	485
1	4391	363583.417080855019	486
1	4398	364328.881121892504	487
1	4405	364751.131216250382	488
1	4414	365529.922652291156	489
1	4427	366727.933920593954	490
1	4436	367298.982440773419	491
1	4445	368188.894583098612	492
1	4450	368601.762695750243	493
1	4463	369550.25436957369	494
1	4468	369877.425216184951	495
1	4481	371318.779740761988	496
1	4486	371738.196523999818	497
1	4499	372568.437741603725	498
1	4506	373283.645715890475	499
1	4515	373725.441986974352	500
1	4526	374509.462405135878	501
1	4533	375128.298178967111	502
1	4544	375886.334595317044	503
1	4549	376471.24528535644	504
1	4558	377088.984180986904	505
1	4567	377944.269433803879	506
1	4578	378780.639208573871	507
1	4585	379136.994341248669	508
1	4598	380352.333705034131	509
1	4603	380787.355330400193	510
1	4614	381637.470279447759	511
1	4623	382649.592973943824	512
1	4630	383546.242765104422	513
1	4643	384585.583764407808	514
1	4648	385104.561485024193	515
1	4657	385507.700943527768	516
1	4666	386109.611662896374	517
1	4679	387394.897178281123	518
1	4686	387998.379956558371	519
1	4693	388645.707285264531	520
1	4706	389536.98816262188	521
1	4715	390338.941225642363	522
1	4720	391064.4818290137	523
1	4729	391543.658445635836	524
1	4740	392333.714772155533	525
1	4747	392778.806933574403	526
1	4758	393728.385327849562	527
1	4765	394326.041659992213	528
1	4774	394967.015790101166	529
1	4783	395571.625514980431	530
1	4796	396476.87100442129	531
1	4805	397279.394629178595	532
1	4812	397919.683761242803	533
1	4821	398657.92441363449	534
1	4830	399331.874169968095	535
1	4839	399848.734438698766	536
1	4848	400876.369783189175	537
1	4857	401600.653560971869	538
1	4864	402432.378967199502	539
1	4873	402907.819416839657	540
1	4884	404072.031646175337	541
1	4891	404388.675032509518	542
1	4904	405352.09145620468	543
1	4913	405957.334215100882	544
1	4922	406660.000307718319	545
1	4929	407210.00448320995	546
1	4936	407528.553336113718	547
1	4949	408720.158642716733	548
1	4956	409163.751942710978	549
1	4967	409862.089638412026	550
1	4972	410276.875642826808	551
1	4981	410733.186233276529	552
1	4990	411636.842774413553	553
1	4999	412269.348517851932	554
1	5010	413544.590502977398	555
1	5017	414266.077993204844	556
1	5030	415328.285768860979	557
1	5035	415632.123244833229	558
1	5046	416499.06504540707	559
1	5055	417392.659459356247	560
1	5064	417891.41080942939	561
1	5071	418530.526654142914	562
1	5080	419409.927896456821	563
1	5089	420117.25751738998	564
1	5098	421038.19764750081	565
1	5111	422120.745511958403	566
1	5118	422527.475352818174	567
1	5127	423343.182579288287	568
1	5134	424180.420116568012	569
1	5145	425087.938783597229	570
1	5154	425908.250546688242	571
1	5161	426574.817717447905	572
1	5174	427636.299265455483	573
1	5183	428501.240215217723	574
1	5188	429062.720092479168	575
1	5199	429837.423230940504	576
1	5206	430601.211143005667	577
1	5215	431237.046643020613	578
1	5224	431643.067493755398	579
1	5235	432461.431627208394	580
1	5244	432917.228477541384	581
1	5253	433775.002300366786	582
1	5262	434865.663854638143	583
1	5269	435289.903456997155	584
1	5278	436059.629168082057	585
1	5287	436819.227612577407	586
1	5298	438226.47101129408	587
1	5309	438910.686100926278	588
1	5318	439550.754003832145	589
1	5325	440201.029258640511	590
1	5334	440952.843069378315	591
1	5345	441896.094810962706	592
1	5354	442671.258003730356	593
1	5363	443413.229187950521	594
1	5372	444034.380564652412	595
1	5381	444555.904879700421	596
1	5386	445243.912250222667	597
1	5397	446249.728385824739	598
1	5404	446826.75697566013	599
1	5417	447818.317196331947	600
1	5426	448425.7855230477	601
1	5431	448754.798898194015	602
1	5442	449935.915510682419	603
1	5453	450865.491266967758	604
1	5460	451316.157138487353	605
1	5469	452174.663562979578	606
1	5476	452559.476224612474	607
1	5485	453389.676663419261	608
1	5494	454004.084543092205	609
1	5507	455387.273160461366	610
1	5514	456029.930502176314	611
1	5521	456594.765053177282	612
1	5534	457686.252965033083	613
1	5543	458489.007571991562	614
1	5548	459030.924955336406	615
1	5557	459819.782792357757	616
1	5570	460849.429202266066	617
1	5577	461292.662329645856	618
1	5588	461948.280008649482	619
1	5597	462792.563270079001	620
1	5604	463530.911094741925	621
1	5613	464358.277266472607	622
1	5620	464991.348599921941	623
1	5629	465829.420575918659	624
1	5638	466417.885081702872	625
1	5649	467647.892374824762	626
1	5656	468103.287557791948	627
1	5665	468692.057482665433	628
1	5674	469797.550984891161	629
1	5685	470663.127984618798	630
1	5694	471329.936429439143	631
1	5701	471999.146387307004	632
1	5712	473058.692514896423	633
1	5723	473905.284118652374	634
1	5732	474701.725005917281	635
1	5737	475322.520146844939	636
1	5746	475736.451174365387	637
1	5759	476727.820019843087	638
1	5768	477617.69731566313	639
1	5777	478352.911719772995	640
1	5784	478740.850985236496	641
1	5795	479830.406924849406	642
1	5800	480133.22221445854	643
1	5811	481093.797035934434	644
1	5818	481734.142521070347	645
1	5827	482385.527058457986	646
1	5836	483265.69986823018	647
1	5845	484031.115051778064	648
1	5856	484780.860729329318	649
1	5863	485183.01985678266	650
1	5876	486645.13616412881	651
1	5883	487208.42861845161	652
1	5892	488105.766552267626	653
1	5903	488753.135342057824	654
1	5908	489256.046300707415	655
1	5919	489963.280729763239	656
1	5926	490387.005806202098	657
1	5935	491611.745186056972	658
1	5944	492144.349503144653	659
1	5955	493326.08510912399	660
1	5964	493939.654151257158	661
1	5973	494799.881304195181	662
1	5980	495425.641015078903	663
1	5991	496256.826717825638	664
1	6002	497059.744938556136	665
1	6007	497388.396374601902	666
1	6018	498704.448808450283	667
1	6029	499502.270416868882	668
1	6034	500229.05279248956	669
1	6047	500954.253227496551	670
1	6056	501790.283966995807	671
1	6061	502101.979239983515	672
1	6070	503035.093203652682	673
1	6083	503945.37583985369	674
1	6090	504339.203752018542	675
1	6099	505220.973181771146	676
1	6106	506112.247763481022	677
1	6115	506486.623821174756	678
1	6128	507897.289939038486	679
1	6133	508197.943474911184	680
1	6142	508871.482447162301	681
1	6151	510054.677198873864	682
1	6160	510677.887385711105	683
1	6169	511187.934848712788	684
1	6178	511802.953708916933	685
1	6191	512936.199145345048	686
1	6200	513722.739297850088	687
1	6207	514500.161408633024	688
1	6218	515127.987139346108	689
1	6223	515433.860171958834	690
1	6236	516755.346009414673	691
1	6243	517439.912351500273	692
1	6250	517923.397715901986	693
1	6263	519080.310535803468	694
1	6270	519799.328007129983	695
1	6279	520589.991910988496	696
1	6286	520976.204464444922	697
1	6295	521761.244007479431	698
1	6308	522813.4502871428	699
1	6313	523503.51666393693	700
1	6322	524213.619052385943	701
1	6331	525009.143237303974	702
1	6340	525673.495297506483	703
1	6351	526341.778987599569	704
1	6362	526899.566394975441	705
1	6367	527497.385917184907	706
1	6380	528427.20015998933	707
1	6389	528990.89744165543	708
1	6394	529405.211085453662	709
1	6403	530280.578169878605	710
1	6416	531349.851919105309	711
1	6423	531791.961349127847	712
1	6430	532473.223859444293	713
1	6443	533733.604328194666	714
1	6452	534435.039145918596	715
1	6457	534760.403521265868	716
1	6466	535506.609771447289	717
1	6475	536226.49234933782	718
1	6486	537167.85312406722	719
1	6495	538058.322107093442	720
1	6506	538733.609036263112	721
1	6511	539372.703283187036	722
1	6520	539985.166862094809	723
1	6529	540865.479468181763	724
1	6538	541389.920673798803	725
1	6551	542501.497011026401	726
1	6558	543069.784499751437	727
1	6569	544127.050797455046	728
1	6574	544639.918771153349	729
1	6583	545267.012936621937	730
1	6592	546429.525954695451	731
1	6603	547225.792081793803	732
1	6610	547869.5174602792	733
1	6621	548939.951343555037	734
1	6630	549592.603439698029	735
1	6637	550125.489598000455	736
1	6650	551224.844528641586	737
1	6657	551862.199140200426	738
1	6666	552596.529129613226	739
1	6677	553266.489275638049	740
1	6684	554038.246126240154	741
1	6691	554535.004031332245	742
1	6704	555458.939224015956	743
1	6711	555930.157594196533	744
1	6718	556579.317803448101	745
1	6731	557728.389056073536	746
1	6738	558362.279314035584	747
1	6745	558908.945743180846	748
1	6756	559580.976749584113	749
1	6765	560438.51931765679	750
1	6772	560985.962404729833	751
1	6781	561544.831218151411	752
1	6792	562695.361642772367	753
1	6799	563661.615637270768	754
1	6812	564639.715190464665	755
1	6821	565188.376672798802	756
1	6828	565857.931643491645	757
1	6835	566283.365059644018	758
1	6848	567440.319221466814	759
1	6855	567920.811814628576	760
1	6864	568819.330073660274	761
1	6871	569305.491333128919	762
1	6882	570127.688239049201	763
1	6889	570529.926437465509	764
1	6900	571369.699685974081	765
1	6907	571759.639343339984	766
1	6916	572516.028261836652	767
1	6925	573470.531655382399	768
1	6934	574058.915678272059	769
1	6943	574801.177337486331	770
1	6952	575618.484319187735	771
1	6965	576811.568340333213	772
1	6970	577188.961087167297	773
1	6981	578018.149707745795	774
1	6990	578836.461040237953	775
1	6997	579203.636473836412	776
1	7002	579556.264246674288	777
1	7015	580423.50965389054	778
1	7024	581061.348212929476	779
1	7033	582088.066156161983	780
1	7044	583255.724932160262	781
1	7053	583971.081053372506	782
1	7060	584527.294013416428	783
1	7069	585407.070481125298	784
1	7078	586171.852311166036	785
1	7087	586763.807141175526	786
1	7100	588099.404842453111	787
1	7107	588686.496756970916	788
1	7114	589407.833812292699	789
1	7127	590237.155504524741	790
1	7134	590676.860515633631	791
1	7143	591613.443475356359	792
1	7154	592566.708609648082	793
1	7161	593419.520334340665	794
1	7172	594248.329512309317	795
1	7179	594811.193001782556	796
1	7186	595523.322509089519	797
1	7197	596145.467611262609	798
1	7208	597180.394029384513	799
1	7215	597785.263503855128	800
1	7224	598312.09546294998	801
1	7231	598882.12974853817	802
1	7242	599780.161670548876	803
1	7249	600197.795295110007	804
1	7258	600811.137804156203	805
1	7267	601527.169674262439	806
1	7272	602164.914049347897	807
1	7285	603357.485676789691	808
1	7298	604335.029988968779	809

