version 2
run Pipelined_3Teachers-78-20190105-10:57:35-24316
attr configname Pipelined_3Teachers
attr datetime 20190105-10:57:35
attr experiment Pipelined_3Teachers
attr inifile ../simulations/omnetpp.ini
attr iterationvars "$0=\"uniform\""
attr iterationvarsf uniform-
attr measurement "$0=\"uniform\""
attr network PipelinedExamSession
attr processid 24316
attr repetition 78
attr replication #78
attr resultdir results
attr runnumber 78
attr seedset 78
param **.teachersNumber 3
param **.answerTimeDistribution "\"uniform\""
param **.minUniform 300
param **.maxUniform 900
param **.scaleLognormal 6.2854
param **.shapeLognormal 0.4724

vector 0 PipelinedExamSession examinationTime:vector ETV
attr source examFinished
vector 1 PipelinedExamSession studentID:vector ETV
attr source student
0	3156	260329.970299964796	1839.9407087825
0	3165	261311.969629023249	2096.8706755433
0	3172	262006.074282433863	2116.5452850983
0	3181	262460.059753898556	1860.1158654783
0	3190	263172.681075101744	1825.6475462113
0	3201	264041.628802707444	1891.7893190403
0	3210	264830.82077116708	2148.6327172257
0	3217	265210.501533374216	1716.9840642717
0	3230	266235.124266939263	2052.3015492596
0	3235	266801.410464523385	1825.3939458635
0	3244	267264.590660808633	1824.0656023845
0	3253	268585.24503987285	2350.1207729336
0	3264	269558.154995692919	2428.9727961179
0	3275	270414.863335993166	2408.6288422812
0	3284	271178.59154446053	2334.4848227687
0	3291	271710.683239996458	2035.1897753309
0	3298	272509.357930021385	2094.4945940282
0	3307	273093.363438639814	1914.7718941793
0	3316	273803.781344834739	1802.7617493644
0	3325	274385.279314219976	1640.1574036572
0	3334	275420.6919545308	1956.6397072747
0	3343	275948.942607454981	1820.3608838841
0	3354	276917.882679216589	1952.7377747465
0	3361	277424.994179327067	1791.2118016742
0	3374	278839.595535350989	2471.5733391233
0	3383	279698.011420061837	2614.0269957483
0	3388	280159.914166247497	2217.197275674
0	3397	280995.289538567911	2155.6940032169
0	3408	281974.055137904386	2276.0437178425
0	3417	282531.515773572053	1998.8706016447
0	3424	283153.268419252734	1913.2142960094
0	3433	283881.723516806986	1875.6519526709
0	3446	284930.037380894672	2166.9603446033
0	3451	285314.40017027783	1826.6445329413
0	3464	286450.186299299847	2238.5338042863
0	3469	286849.821949750211	1919.7845688555
0	3478	287426.260620541897	1838.5136840399
0	3487	287963.363575050633	1513.1772757508
0	3496	288832.674555340808	1768.1819034275
0	3505	289425.00415309335	1818.6215615831
0	3514	290296.395837189657	1822.4320319016
0	3525	291085.497533250627	1764.4882597961
0	3534	291790.74323410171	1768.5009662993
0	3545	292603.43383750881	2052.7828859165
0	3550	292969.354034168673	1777.8210779652
0	3559	293584.592667175484	1670.5565637443
0	3568	294271.921552531449	1668.4877150226
0	3581	295004.508888674927	1759.638390597
0	3586	295589.516108343405	1730.4927709512
0	3597	296365.016205143211	1940.8247821033
0	3606	296728.051959397299	1723.5430707224
0	3609	297048.677044920651	1252.2762015928
0	3618	298005.941633228241	1614.6360567771
0	3631	299350.568992272047	2163.1887163036
0	3642	300029.792783595649	1943.4215791058
0	3645	300414.147963468013	1442.9774682038
0	3658	301785.375078907265	2080.6802309118
0	3667	302356.320862518651	1859.903509682
0	3676	302914.664031704916	1554.7297799494
0	3687	303540.968858543812	1466.7199661024
0	3694	303893.875000393047	1383.1197319552
0	3705	305234.09451311457	2246.1401145905
0	3714	305814.777707029162	1963.0849633366
0	3721	306743.578372383519	2144.5428009611
0	3730	307368.764431541814	1960.9407052863
0	3739	308005.630857730313	1704.5474953484
0	3748	308768.634723918541	1761.935001472
0	3761	309848.294210247724	2281.8765716627
0	3770	310668.702496262296	2326.556312805
0	3775	310992.669429536938	1945.0157014187
0	3784	312068.541987938836	2220.2477776911
0	3797	312977.015297720237	2308.3128014579
0	3806	313664.336557500093	2137.03752039
0	3811	314167.829203046887	1795.8207044285
0	3824	315065.259572910174	2088.2442751899
0	3833	315909.526593843504	2245.1900363434
0	3842	316715.446348395228	2467.9988795891
0	3849	317328.763342229679	2263.5037693195
0	3856	317920.364503841877	2010.8379099984
0	3865	318365.114101069078	1649.6677526738
0	3874	318997.003067750514	1489.0198149718
0	3887	320304.596948437423	2147.4396719132
0	3894	320995.011443831057	2305.6599433534
0	3901	321306.014886125953	1725.6945685018
0	3910	322213.116374937847	1908.5194265004
0	3919	322906.243205163658	1746.3353266474
0	3930	323746.788938110725	1829.8623177689
0	3937	324352.879376895757	1798.069182504
0	3948	325284.18784257959	2072.7894350421
0	3955	325921.335643669622	1928.3926080912
0	3966	326655.711418250607	1785.2616696618
0	3973	327277.485237875985	1754.8864097334
0	3982	328000.994280679183	1748.4651041217
0	3991	328529.226555861563	1574.9365202151
0	4002	329723.007156746493	2290.9243185539
0	4013	330584.210283262686	2437.1292748488
0	4018	330899.093396170096	1867.4069131259
0	4027	331846.739726280825	2097.3241609521
0	4040	333052.56255674179	2468.3522734791
0	4049	333832.766505936192	2416.0708415788
0	4054	334236.674614995749	2083.2494911272
0	4063	334748.263185890423	1695.7006291486
0	4074	335862.897075573014	2030.1305696368
0	4085	336601.39289153743	2004.7932132147
0	4090	336926.679352624374	1495.7946717739
0	4099	337831.171925598787	1962.9013953265
0	4108	338705.978382099453	2104.585490562
0	4119	339246.528125926885	1866.3529879879
0	4128	339796.67305047627	1518.1598247495
0	4139	340751.822562050107	2028.6001344211
0	4148	341639.439095836165	2296.8859130982
0	4153	341947.255104314568	1976.3574161567
0	4162	342719.683143217149	1967.860581167
0	4173	344067.214893875676	2427.7757980395
0	4184	344871.508621796998	2385.4277806822
0	4193	345706.679059937629	2323.9086763468
0	4198	346084.447920648414	1915.0215198286
0	4207	346611.939955316516	1740.4313335195
0	4218	347676.082157855886	1969.4030979183
0	4229	348716.761729633469	2346.72571267
0	4234	349146.694241976399	2023.8819780294
0	4245	350096.66409348141	2271.3458797429
0	4252	350815.094502037424	2098.332772404
0	4265	351611.427474534173	2008.953020582
0	4274	352342.251176247407	2032.1029779967
0	4281	352884.176108473946	1922.4792009685
0	4292	353790.067200735245	2178.6397262011
0	4301	354641.047820029814	2298.7966437824
0	4308	355116.076925257255	2208.1843786407
0	4317	355846.103266021271	2056.036065286
0	4328	356854.621557053213	2213.5737370234
0	4333	357209.06270812269	1820.4264088534
0	4344	357798.775576148216	1701.2469622772
0	4353	358452.4810759351	1597.8595188819
0	4360	359171.437533851748	1848.2879191171
0	4369	359835.065407818218	2000.7294818759
0	4378	360513.380397995969	1813.1433328148
0	4389	360987.404866470059	1659.30782184
0	4400	361555.062746861985	1410.1565781981
0	4407	362113.833818212187	1499.1460788064
0	4414	362718.124138936436	1729.2477692943
0	4425	363634.392459131813	2079.3297122698
0	4432	364008.429181901774	1802.1106682718
0	4445	365120.57328340601	2090.4505534563
0	4450	365522.274105716532	1820.0052309316
0	4463	366293.260046420654	1742.3981032334
0	4472	366687.276485050132	1566.7032016441
0	4481	367553.676336910611	1934.3227506615
0	4488	368260.14709314335	1966.8870467227
0	4499	369157.83620565202	2470.5597206019
0	4504	369727.835430996529	2174.1590940859
0	4515	370363.534948462656	2078.0945397913
0	4524	371054.850469250268	1897.0142635982
0	4531	371762.816738197616	1830.5317370687
0	4540	372274.263197695872	1910.7093006838
0	4551	373348.326951172238	2097.3193192855
0	4562	374044.241721276229	2119.0254410729
0	4567	374397.688765078818	1886.0161526129
0	4580	375290.772081725334	1880.0890607759
0	4587	375871.03381804194	1826.7920967657
0	4596	376283.49076006565	1438.7454327196
0	4607	376925.284135434811	1634.5120537095
0	4614	377692.016430851107	1722.5454683416
0	4623	378432.493931287935	2005.086293444
0	4632	378859.191862726619	1933.9077272918
0	4641	379809.95058305565	2011.5077183582
0	4650	380559.313658997451	2093.4191053268
0	4657	381199.82890603136	1979.8885990866
0	4666	381776.249996619334	1910.3452469688
0	4679	382908.705353317817	2317.9964713287
0	4686	383671.390381827985	2276.4936834108
0	4693	384016.619350947475	1855.7018721476
0	4704	384975.20248680379	2066.497133486
0	4715	385704.868724523147	2000.9378814138
0	4720	386062.373670609703	1644.8339503258
0	4729	386575.834735482966	1474.0532417782
0	4738	387413.056863192504	1708.1881386694
0	4749	388415.874606650358	1969.3429447711
0	4756	388812.813134025818	1721.2409745902
0	4767	389962.341490248254	2148.655874189
0	4776	390692.238746769762	2176.1150800623
0	4783	391144.705379242113	1974.6927611064
0	4792	392331.192490831053	2340.3775995132
0	4805	393390.451860241627	2504.1463375557
0	4814	393875.402064761182	2127.5929187424
0	4821	394534.075428452378	2036.0365524888
0	4828	395042.51855090264	1652.066690661
0	4841	396097.852690983599	2222.4506262224
0	4846	396623.5528415535	1928.658095235
0	4855	397502.996874321288	2057.9899601173
0	4868	398569.457201287186	2471.6045103036
0	4873	399189.844312984532	2265.7686661463
0	4882	399896.380430879107	2118.010895513
0	4891	400496.546057704872	1927.0888564177
0	4902	401427.496457006818	2011.417686101
0	4913	402408.004168979859	2211.4846838638
0	4918	403011.193061387202	2206.7853308748
0	4927	403370.351058617269	1686.0901837237
0	4938	404266.651507699898	1858.64733872
0	4945	405028.02137760449	1781.7423550878
0	4956	405817.813971871545	2171.6624925379
0	4965	406276.524835825001	1895.1310477685
0	4974	407144.937653560226	2062.9674363881
0	4981	407500.707754120265	1672.7768365759
0	4990	408544.305460481009	1829.3370547704
0	4999	409601.200838154217	2229.5429476071
0	5008	410306.036813696882	2163.8610649388
0	5017	411312.0571940672	2324.9334184919
0	5028	412125.209576357192	2420.4342138022
0	5039	412997.173893917388	2450.9683719836
0	5044	413326.764651574231	1913.909542188
0	5053	414020.828002598173	1867.2813203651
0	5062	414562.132002739272	1564.9581088219
0	5073	415874.984163651279	2227.982136514
0	5080	416401.24589335177	1966.0189061891
0	5089	417357.804388878903	2125.9837692138
0	5098	418098.803811427241	2076.751660835
0	5107	419006.779730413145	2101.3204038609
0	5116	419440.602031024209	1748.2967977412
0	5127	420570.841938257253	2269.165029237
0	5134	421291.587034519797	2104.6083473135
0	5147	422257.205839036068	2192.9755799007
0	5156	422934.159498335829	2026.783867646
0	5161	423379.046075418627	1714.0175626148
0	5172	424062.213290110266	1805.0074510742
0	5179	424443.996979203111	1509.8374808673
0	5184	424815.301623428276	1365.7323852181
0	5197	425713.349348958617	1572.4606141448
0	5208	426455.860279966182	1534.5520653762
0	5215	426770.981894340402	1422.794619156
0	5226	428124.984319321847	2189.8337441962
0	5233	428708.594214683434	2000.7857332472
0	5242	429518.805199256204	1915.6498068944
0	5253	430483.106124540827	2054.4321985915
0	5260	431345.603114320001	2101.4546299819
0	5271	432243.29198542986	2137.0272075757
0	5280	433031.412972416765	2028.4375070594
0	5287	433582.746298285237	1925.6073815748
0	5296	434421.820618025995	2020.8970859181
0	5305	435004.568597115613	1840.0150135159
0	5318	436266.109757870471	2303.6575040314
0	5325	436907.447589235416	2212.2861537617
0	5334	437834.150620875915	2273.8787514623
0	5343	438210.079772444477	1943.970014574
0	5354	439321.236014412751	2242.7630474791
0	5361	440150.825278367882	2284.1620034538
0	5370	440869.732898986002	2295.9976966493
0	5381	441441.98920349594	2120.7531890832
0	5390	442301.361595653033	2116.3363027386
0	5399	443094.248972693494	2091.2074844353
0	5408	443942.481169709972	2500.491966214
0	5415	444506.993308290875	2205.6317126378
0	5422	445116.208759602195	2021.9597869087
0	5435	446215.785246854684	2273.3040771447
0	5444	447105.342821683771	2325.1889123116
0	5453	447991.225431952662	2389.1348026693
0	5462	448618.574443738944	2402.7891968843
0	5467	448976.436065370253	1871.0932436865
0	5476	449533.986637322268	1542.7612053696
0	5485	450243.485766509584	1624.9113227706
0	5496	451236.382555402851	2030.8804631699
0	5507	452006.553518772161	2288.1431044545
0	5514	452631.957045989147	2066.6144977324
0	5525	453610.410791728682	2314.8647778668
0	5532	454217.335239378772	2210.7817206066
0	5541	455182.423200784287	2464.6680485923
0	5550	455869.244500715322	2258.8337089866
0	5561	456697.456275299228	2204.1143670212
0	5568	457096.85920597989	1901.2446365319
0	5575	457504.545721085778	1508.0389691982
0	5584	458602.884190343357	1905.4279150441
0	5593	459546.380668133534	2115.0415202603
0	5606	460685.866923490576	2416.8695714325
0	5613	461317.008030647449	2158.1430299208
0	5622	461940.00428812582	2079.0437784512
0	5631	462723.537652334236	2037.6707288437
0	5642	463598.979423986786	2239.1786238179
0	5651	464481.612333096602	2446.7586436775
0	5660	465190.352359553837	2291.5476985741
0	5667	465858.517128182613	2259.5377041958
0	5676	466735.021730326154	2253.4093972296
0	5685	467225.104143843093	2034.7517842893
0	5692	467913.340791966804	1915.7356022391
0	5703	468810.022661509031	1970.0782940257
0	5710	469169.323200127148	1620.7422314677
0	5719	469637.108212709465	1498.9756128285
0	5728	470282.395673822649	1422.0487465616
0	5741	471499.552639620417	2081.5789447166
0	5746	472054.647803306618	2171.1598993745
0	5757	472998.266880679914	2281.1933814548
0	5764	473525.2054063138	2025.6527666934
0	5777	474514.160054270216	2184.183342196
0	5782	474866.865385556631	1698.1595168822
0	5791	475993.360259849617	2059.1492779087
0	5802	476696.614774502852	2182.4547202326
0	5813	477490.180740505496	2169.3266667891
0	5822	478345.556247141251	2158.9319595136
0	5829	478933.828772697637	2221.879349649
0	5836	479587.996196514034	2097.8154560085
0	5845	480333.614965667986	1988.0587185267
0	5856	481074.188596755305	1875.582798617
0	5863	481429.712087055707	1527.9931933153
0	5874	482543.57123938393	1920.5609532539
0	5881	482857.660130225161	1592.10775299
0	5890	483792.439794167915	1941.4095682092
0	5899	484552.907413244285	2002.5236472487
0	5908	485061.799134872892	1689.1104089096
0	5921	486307.451025908851	2093.1823424064
0	5928	487013.640207471364	2075.5961544346
0	5935	487411.502688517833	1675.2985764295
0	5946	488220.574566023463	1913.1235401146
0	5957	489160.430780192875	2097.8611746803
0	5964	489750.697552040257	1959.1018041596
0	5973	490323.890542890915	2023.4838352539
0	5984	491020.312716392839	1859.8819362
0	5991	491680.218379665205	1784.6725090407
0	5998	492236.984395561779	1893.614846142
0	6011	493244.530950905794	2224.218234513
0	6018	493778.089225245679	1977.1153619047
0	6025	494208.99464059625	1807.4017315172
0	6034	494979.412445286328	1734.8814943805
0	6043	495518.265592865685	1417.3837472219
0	6054	496542.111584264824	1999.0562538151
0	6063	497335.644070571327	1972.4916241597
0	6074	498432.627627952063	2287.2790583409
0	6079	498767.992495559195	1981.9283968303
0	6092	500012.725657084996	2452.4949601851
0	6097	500401.649195188696	1969.0215672366
0	6108	501293.985397880936	2042.387833586
0	6119	501975.628964882384	1962.9033077974
0	6126	502571.311961906071	1893.692017626
0	6135	503475.086125452112	2121.477270266
0	6144	503930.582866631488	1954.9539017491
0	6151	504524.694046843838	1715.0112414267
0	6160	505438.904172275256	1934.2602289282
0	6169	506401.238397834863	2182.9287009314
0	6180	506955.804992979433	1972.715064045
0	6189	507783.304150169755	1925.6365198642
0	6200	508443.514483328948	1955.6025815662
0	6207	508831.127851875538	1516.9393284246
0	6214	509392.778175137976	1586.9539639447
0	6223	510197.357718553433	1753.8432352245
0	6236	511462.803149549329	2348.0223930906
0	6241	511879.515878576824	2144.365978986
0	6254	513033.955868147352	2415.8052889165
0	6259	513480.583596881517	2017.7804473322
0	6270	514276.958003360816	1963.1236708257
0	6281	515141.977234231346	2108.021366084
0	6286	515590.946985874363	1682.4690351728
0	6295	516194.082516571545	1817.6890787669
0	6304	517207.272231252902	2065.2949970216
0	6313	517914.035232318603	1940.1022927836
0	6322	518622.713611833789	1970.9655504674
0	6331	519594.813003391066	2188.1190853659
0	6344	520435.196952475273	2182.9765779432
0	6353	521326.519840071016	2194.1590248607
0	6358	522048.832385195457	2309.6125278622
0	6367	522379.887553118207	1944.6906006429
0	6376	523134.757828619369	1808.2379885484
0	6381	523471.794999204614	1391.9685877394
0	6394	525024.088411359154	2270.7927328069
0	6403	525363.008292764464	1858.31479677
0	6412	526407.927124388554	2083.9710399974
0	6425	527546.884445333892	2385.1108396892
0	6432	528299.501844635272	2303.8823311217
0	6443	528913.885173853526	2027.0697321743
0	6448	529297.741091391111	1750.8566460572
0	6457	530046.722388686651	1742.5940538291
0	6466	530644.561176979953	1730.6760031264
0	6477	531622.158897807861	2000.8870451711
0	6484	531927.087257942224	1504.5598489232
0	6493	532848.214770108501	1679.3859732337
0	6506	534108.840719237963	2414.3925310113
0	6513	534688.636207161511	2180.3439882584
0	6520	535002.168683242093	1625.4336518236
0	6529	536158.978681080082	2050.1379618421
0	6538	537209.781589452216	2309.2542277649
0	6547	537830.591299384872	2094.1440276336
0	6556	538520.690326066727	2021.6914849821
0	6565	539214.997790800447	1837.5386929605
0	6576	540199.311278108547	2188.5805141646
0	6583	541123.366272496099	2305.7102142368
0	6594	541922.134713688905	2337.3955488671
0	6605	542586.981939431319	2243.8529260922
0	6612	542980.133104976306	1774.9314136337
0	6619	543330.057852622161	1401.7497285269
0	6630	544076.037621125618	1489.0556816943
0	6639	544856.395358825142	1820.7520763855
0	6646	545563.183757895643	2002.8834714554
0	6659	546266.330626141319	2128.2323610038
0	6668	547132.525097904766	2122.6535038557
0	6677	547734.847263805607	1930.7519668713
0	6684	548217.682880396062	1951.3522542547
0	6693	548999.815922370219	1867.2908244655
0	6704	549905.02365650613	2170.1763927005
0	6711	550695.161531539673	2297.5740051828
0	6718	551184.879099810535	2095.9422977641
0	6727	551972.618080303112	2067.594423797
0	6736	552821.463403618002	2018.0302471854
0	6747	553477.231439994687	1849.1728581022
0	6754	554017.935699317643	1621.1204923689
0	6767	555383.98674186323	2331.3469148241
0	6774	555770.70602942262	2069.2283168435
0	6781	556388.118192460427	1805.5482158437
0	6790	557793.594493344465	2409.6077514812
0	6801	558774.468675535212	2556.1089741066
0	6812	559416.898932354563	2311.6453860886
0	6821	559924.38595429998	1953.8673555013
0	6826	560468.130392069035	1680.2248183172
0	6839	561576.846137596332	2159.9472052418
0	6848	562476.457158196755	2552.0712038968
0	6855	563267.244827002324	2479.5859163627
0	6866	564183.033566828854	2606.1874292325
0	6871	564625.04779603336	2148.5906378366
0	6880	565118.195618223435	1801.520601986
0	6889	565999.994458537586	1816.9608917087
0	6898	566856.220510276072	1775.7309791632
0	6907	567541.249701613598	1983.7461221963
0	6920	568556.80895349946	2271.4467099868
0	6927	568981.38638162058	1873.2170876116
0	6936	569597.71928032864	1720.755529264
0	6947	570244.452481018418	1687.643527519
0	6952	570756.020316761026	1744.7197750211
0	6961	571830.528214573899	2130.7259812485
0	6972	572489.799234923014	2245.3467539046
0	6981	573191.081778612027	2061.9290683419
0	6988	574014.754575351292	2078.8082894403
0	7001	575037.424581963607	2324.5364100672
0	7006	575470.633900025898	2068.3294165414
0	7015	576005.647219112181	1766.8968654703
0	7028	576839.124420750925	1801.6998387873
0	7033	577150.460674474055	1605.9017802123
0	7046	577806.839508097658	1478.8814605214
0	7051	578440.931577002669	1601.8071562517
0	7060	578915.53442152221	1588.7387552764
0	7073	579681.567580578888	1874.7280724812
0	7080	580550.335596129338	1844.8562965728
0	7087	581163.595211925025	2010.6440755539
0	7096	581889.457164192611	2207.8895836137
0	7105	582457.759498665149	1896.4490400162
0	7118	583853.861616784746	2394.2635440733
0	7127	584380.504746409172	2034.5243414864
0	7136	585263.174409884998	2267.3068825621
0	7145	586036.636389931702	2182.774773147
0	7154	586934.466873435342	2553.9621270262
0	7163	587612.218126561531	2349.0437166765
0	7172	588438.616087334269	2401.9796974026
0	7177	588757.483091438228	1823.0162180029
0	7186	589390.158302988896	1777.9401764274
0	7195	589898.453787155488	1459.8376998212
0	7204	591212.785527203271	2244.2825329956
0	7213	591868.91908426773	2015.8644843847
0	7224	592725.596514483953	2050.6877680309
0	7235	593707.100956002289	2392.6960345823
0	7240	594156.983398273626	2196.9942048658
0	7249	594973.940158076623	2130.4694088176
0	7258	595456.40867888	1749.3077228777
0	7267	595987.382779642979	1450.1488365233
0	7276	597058.474534889723	1980.0027959514
0	7285	597534.196514776016	1697.2285356838
0	7294	598122.360472753683	1409.6564804669
0	7305	599151.43639887687	1916.9161696918
0	7312	599739.383244048843	1751.7395556439
0	7321	600396.695327013771	1621.0417495575
0	7334	601545.338686136568	2339.0879735816
0	7339	602031.675124028737	2001.4497879893
0	7352	603155.378500046248	2261.2865604926
0	7357	603821.287238085682	2275.9485519491
0	7366	604392.259772820437	2077.2509233095
1	3156	260329.970299964796	349
1	3165	261311.969629023249	350
1	3172	262006.074282433863	351
1	3181	262460.059753898556	352
1	3190	263172.681075101744	353
1	3201	264041.628802707444	354
1	3210	264830.82077116708	355
1	3217	265210.501533374216	356
1	3230	266235.124266939263	357
1	3235	266801.410464523385	358
1	3244	267264.590660808633	359
1	3253	268585.24503987285	360
1	3264	269558.154995692919	361
1	3275	270414.863335993166	362
1	3284	271178.59154446053	363
1	3291	271710.683239996458	364
1	3298	272509.357930021385	365
1	3307	273093.363438639814	366
1	3316	273803.781344834739	367
1	3325	274385.279314219976	368
1	3334	275420.6919545308	369
1	3343	275948.942607454981	370
1	3354	276917.882679216589	371
1	3361	277424.994179327067	372
1	3374	278839.595535350989	373
1	3383	279698.011420061837	374
1	3388	280159.914166247497	375
1	3397	280995.289538567911	376
1	3408	281974.055137904386	377
1	3417	282531.515773572053	378
1	3424	283153.268419252734	379
1	3433	283881.723516806986	380
1	3446	284930.037380894672	381
1	3451	285314.40017027783	382
1	3464	286450.186299299847	383
1	3469	286849.821949750211	384
1	3478	287426.260620541897	385
1	3487	287963.363575050633	386
1	3496	288832.674555340808	387
1	3505	289425.00415309335	388
1	3514	290296.395837189657	389
1	3525	291085.497533250627	390
1	3534	291790.74323410171	391
1	3545	292603.43383750881	392
1	3550	292969.354034168673	393
1	3559	293584.592667175484	394
1	3568	294271.921552531449	395
1	3581	295004.508888674927	396
1	3586	295589.516108343405	397
1	3597	296365.016205143211	398
1	3606	296728.051959397299	399
1	3609	297048.677044920651	400
1	3618	298005.941633228241	401
1	3631	299350.568992272047	402
1	3642	300029.792783595649	403
1	3645	300414.147963468013	404
1	3658	301785.375078907265	405
1	3667	302356.320862518651	406
1	3676	302914.664031704916	407
1	3687	303540.968858543812	408
1	3694	303893.875000393047	409
1	3705	305234.09451311457	410
1	3714	305814.777707029162	411
1	3721	306743.578372383519	412
1	3730	307368.764431541814	413
1	3739	308005.630857730313	414
1	3748	308768.634723918541	415
1	3761	309848.294210247724	416
1	3770	310668.702496262296	417
1	3775	310992.669429536938	418
1	3784	312068.541987938836	419
1	3797	312977.015297720237	420
1	3806	313664.336557500093	421
1	3811	314167.829203046887	422
1	3824	315065.259572910174	423
1	3833	315909.526593843504	424
1	3842	316715.446348395228	425
1	3849	317328.763342229679	426
1	3856	317920.364503841877	427
1	3865	318365.114101069078	428
1	3874	318997.003067750514	429
1	3887	320304.596948437423	430
1	3894	320995.011443831057	431
1	3901	321306.014886125953	432
1	3910	322213.116374937847	433
1	3919	322906.243205163658	434
1	3930	323746.788938110725	435
1	3937	324352.879376895757	436
1	3948	325284.18784257959	437
1	3955	325921.335643669622	438
1	3966	326655.711418250607	439
1	3973	327277.485237875985	440
1	3982	328000.994280679183	441
1	3991	328529.226555861563	442
1	4002	329723.007156746493	443
1	4013	330584.210283262686	444
1	4018	330899.093396170096	445
1	4027	331846.739726280825	446
1	4040	333052.56255674179	447
1	4049	333832.766505936192	448
1	4054	334236.674614995749	449
1	4063	334748.263185890423	450
1	4074	335862.897075573014	451
1	4085	336601.39289153743	452
1	4090	336926.679352624374	453
1	4099	337831.171925598787	454
1	4108	338705.978382099453	455
1	4119	339246.528125926885	456
1	4128	339796.67305047627	457
1	4139	340751.822562050107	458
1	4148	341639.439095836165	459
1	4153	341947.255104314568	460
1	4162	342719.683143217149	461
1	4173	344067.214893875676	462
1	4184	344871.508621796998	463
1	4193	345706.679059937629	464
1	4198	346084.447920648414	465
1	4207	346611.939955316516	466
1	4218	347676.082157855886	467
1	4229	348716.761729633469	468
1	4234	349146.694241976399	469
1	4245	350096.66409348141	470
1	4252	350815.094502037424	471
1	4265	351611.427474534173	472
1	4274	352342.251176247407	473
1	4281	352884.176108473946	474
1	4292	353790.067200735245	475
1	4301	354641.047820029814	476
1	4308	355116.076925257255	477
1	4317	355846.103266021271	478
1	4328	356854.621557053213	479
1	4333	357209.06270812269	480
1	4344	357798.775576148216	481
1	4353	358452.4810759351	482
1	4360	359171.437533851748	483
1	4369	359835.065407818218	484
1	4378	360513.380397995969	485
1	4389	360987.404866470059	486
1	4400	361555.062746861985	487
1	4407	362113.833818212187	488
1	4414	362718.124138936436	489
1	4425	363634.392459131813	490
1	4432	364008.429181901774	491
1	4445	365120.57328340601	492
1	4450	365522.274105716532	493
1	4463	366293.260046420654	494
1	4472	366687.276485050132	495
1	4481	367553.676336910611	496
1	4488	368260.14709314335	497
1	4499	369157.83620565202	498
1	4504	369727.835430996529	499
1	4515	370363.534948462656	500
1	4524	371054.850469250268	501
1	4531	371762.816738197616	502
1	4540	372274.263197695872	503
1	4551	373348.326951172238	504
1	4562	374044.241721276229	505
1	4567	374397.688765078818	506
1	4580	375290.772081725334	507
1	4587	375871.03381804194	508
1	4596	376283.49076006565	509
1	4607	376925.284135434811	510
1	4614	377692.016430851107	511
1	4623	378432.493931287935	512
1	4632	378859.191862726619	513
1	4641	379809.95058305565	514
1	4650	380559.313658997451	515
1	4657	381199.82890603136	516
1	4666	381776.249996619334	517
1	4679	382908.705353317817	518
1	4686	383671.390381827985	519
1	4693	384016.619350947475	520
1	4704	384975.20248680379	521
1	4715	385704.868724523147	522
1	4720	386062.373670609703	523
1	4729	386575.834735482966	524
1	4738	387413.056863192504	525
1	4749	388415.874606650358	526
1	4756	388812.813134025818	527
1	4767	389962.341490248254	528
1	4776	390692.238746769762	529
1	4783	391144.705379242113	530
1	4792	392331.192490831053	531
1	4805	393390.451860241627	532
1	4814	393875.402064761182	533
1	4821	394534.075428452378	534
1	4828	395042.51855090264	535
1	4841	396097.852690983599	536
1	4846	396623.5528415535	537
1	4855	397502.996874321288	538
1	4868	398569.457201287186	539
1	4873	399189.844312984532	540
1	4882	399896.380430879107	541
1	4891	400496.546057704872	542
1	4902	401427.496457006818	543
1	4913	402408.004168979859	544
1	4918	403011.193061387202	545
1	4927	403370.351058617269	546
1	4938	404266.651507699898	547
1	4945	405028.02137760449	548
1	4956	405817.813971871545	549
1	4965	406276.524835825001	550
1	4974	407144.937653560226	551
1	4981	407500.707754120265	552
1	4990	408544.305460481009	553
1	4999	409601.200838154217	554
1	5008	410306.036813696882	555
1	5017	411312.0571940672	556
1	5028	412125.209576357192	557
1	5039	412997.173893917388	558
1	5044	413326.764651574231	559
1	5053	414020.828002598173	560
1	5062	414562.132002739272	561
1	5073	415874.984163651279	562
1	5080	416401.24589335177	563
1	5089	417357.804388878903	564
1	5098	418098.803811427241	565
1	5107	419006.779730413145	566
1	5116	419440.602031024209	567
1	5127	420570.841938257253	568
1	5134	421291.587034519797	569
1	5147	422257.205839036068	570
1	5156	422934.159498335829	571
1	5161	423379.046075418627	572
1	5172	424062.213290110266	573
1	5179	424443.996979203111	574
1	5184	424815.301623428276	575
1	5197	425713.349348958617	576
1	5208	426455.860279966182	577
1	5215	426770.981894340402	578
1	5226	428124.984319321847	579
1	5233	428708.594214683434	580
1	5242	429518.805199256204	581
1	5253	430483.106124540827	582
1	5260	431345.603114320001	583
1	5271	432243.29198542986	584
1	5280	433031.412972416765	585
1	5287	433582.746298285237	586
1	5296	434421.820618025995	587
1	5305	435004.568597115613	588
1	5318	436266.109757870471	589
1	5325	436907.447589235416	590
1	5334	437834.150620875915	591
1	5343	438210.079772444477	592
1	5354	439321.236014412751	593
1	5361	440150.825278367882	594
1	5370	440869.732898986002	595
1	5381	441441.98920349594	596
1	5390	442301.361595653033	597
1	5399	443094.248972693494	598
1	5408	443942.481169709972	599
1	5415	444506.993308290875	600
1	5422	445116.208759602195	601
1	5435	446215.785246854684	602
1	5444	447105.342821683771	603
1	5453	447991.225431952662	604
1	5462	448618.574443738944	605
1	5467	448976.436065370253	606
1	5476	449533.986637322268	607
1	5485	450243.485766509584	608
1	5496	451236.382555402851	609
1	5507	452006.553518772161	610
1	5514	452631.957045989147	611
1	5525	453610.410791728682	612
1	5532	454217.335239378772	613
1	5541	455182.423200784287	614
1	5550	455869.244500715322	615
1	5561	456697.456275299228	616
1	5568	457096.85920597989	617
1	5575	457504.545721085778	618
1	5584	458602.884190343357	619
1	5593	459546.380668133534	620
1	5606	460685.866923490576	621
1	5613	461317.008030647449	622
1	5622	461940.00428812582	623
1	5631	462723.537652334236	624
1	5642	463598.979423986786	625
1	5651	464481.612333096602	626
1	5660	465190.352359553837	627
1	5667	465858.517128182613	628
1	5676	466735.021730326154	629
1	5685	467225.104143843093	630
1	5692	467913.340791966804	631
1	5703	468810.022661509031	632
1	5710	469169.323200127148	633
1	5719	469637.108212709465	634
1	5728	470282.395673822649	635
1	5741	471499.552639620417	636
1	5746	472054.647803306618	637
1	5757	472998.266880679914	638
1	5764	473525.2054063138	639
1	5777	474514.160054270216	640
1	5782	474866.865385556631	641
1	5791	475993.360259849617	642
1	5802	476696.614774502852	643
1	5813	477490.180740505496	644
1	5822	478345.556247141251	645
1	5829	478933.828772697637	646
1	5836	479587.996196514034	647
1	5845	480333.614965667986	648
1	5856	481074.188596755305	649
1	5863	481429.712087055707	650
1	5874	482543.57123938393	651
1	5881	482857.660130225161	652
1	5890	483792.439794167915	653
1	5899	484552.907413244285	654
1	5908	485061.799134872892	655
1	5921	486307.451025908851	656
1	5928	487013.640207471364	657
1	5935	487411.502688517833	658
1	5946	488220.574566023463	659
1	5957	489160.430780192875	660
1	5964	489750.697552040257	661
1	5973	490323.890542890915	662
1	5984	491020.312716392839	663
1	5991	491680.218379665205	664
1	5998	492236.984395561779	665
1	6011	493244.530950905794	666
1	6018	493778.089225245679	667
1	6025	494208.99464059625	668
1	6034	494979.412445286328	669
1	6043	495518.265592865685	670
1	6054	496542.111584264824	671
1	6063	497335.644070571327	672
1	6074	498432.627627952063	673
1	6079	498767.992495559195	674
1	6092	500012.725657084996	675
1	6097	500401.649195188696	676
1	6108	501293.985397880936	677
1	6119	501975.628964882384	678
1	6126	502571.311961906071	679
1	6135	503475.086125452112	680
1	6144	503930.582866631488	681
1	6151	504524.694046843838	682
1	6160	505438.904172275256	683
1	6169	506401.238397834863	684
1	6180	506955.804992979433	685
1	6189	507783.304150169755	686
1	6200	508443.514483328948	687
1	6207	508831.127851875538	688
1	6214	509392.778175137976	689
1	6223	510197.357718553433	690
1	6236	511462.803149549329	691
1	6241	511879.515878576824	692
1	6254	513033.955868147352	693
1	6259	513480.583596881517	694
1	6270	514276.958003360816	695
1	6281	515141.977234231346	696
1	6286	515590.946985874363	697
1	6295	516194.082516571545	698
1	6304	517207.272231252902	699
1	6313	517914.035232318603	700
1	6322	518622.713611833789	701
1	6331	519594.813003391066	702
1	6344	520435.196952475273	703
1	6353	521326.519840071016	704
1	6358	522048.832385195457	705
1	6367	522379.887553118207	706
1	6376	523134.757828619369	707
1	6381	523471.794999204614	708
1	6394	525024.088411359154	709
1	6403	525363.008292764464	710
1	6412	526407.927124388554	711
1	6425	527546.884445333892	712
1	6432	528299.501844635272	713
1	6443	528913.885173853526	714
1	6448	529297.741091391111	715
1	6457	530046.722388686651	716
1	6466	530644.561176979953	717
1	6477	531622.158897807861	718
1	6484	531927.087257942224	719
1	6493	532848.214770108501	720
1	6506	534108.840719237963	721
1	6513	534688.636207161511	722
1	6520	535002.168683242093	723
1	6529	536158.978681080082	724
1	6538	537209.781589452216	725
1	6547	537830.591299384872	726
1	6556	538520.690326066727	727
1	6565	539214.997790800447	728
1	6576	540199.311278108547	729
1	6583	541123.366272496099	730
1	6594	541922.134713688905	731
1	6605	542586.981939431319	732
1	6612	542980.133104976306	733
1	6619	543330.057852622161	734
1	6630	544076.037621125618	735
1	6639	544856.395358825142	736
1	6646	545563.183757895643	737
1	6659	546266.330626141319	738
1	6668	547132.525097904766	739
1	6677	547734.847263805607	740
1	6684	548217.682880396062	741
1	6693	548999.815922370219	742
1	6704	549905.02365650613	743
1	6711	550695.161531539673	744
1	6718	551184.879099810535	745
1	6727	551972.618080303112	746
1	6736	552821.463403618002	747
1	6747	553477.231439994687	748
1	6754	554017.935699317643	749
1	6767	555383.98674186323	750
1	6774	555770.70602942262	751
1	6781	556388.118192460427	752
1	6790	557793.594493344465	753
1	6801	558774.468675535212	754
1	6812	559416.898932354563	755
1	6821	559924.38595429998	756
1	6826	560468.130392069035	757
1	6839	561576.846137596332	758
1	6848	562476.457158196755	759
1	6855	563267.244827002324	760
1	6866	564183.033566828854	761
1	6871	564625.04779603336	762
1	6880	565118.195618223435	763
1	6889	565999.994458537586	764
1	6898	566856.220510276072	765
1	6907	567541.249701613598	766
1	6920	568556.80895349946	767
1	6927	568981.38638162058	768
1	6936	569597.71928032864	769
1	6947	570244.452481018418	770
1	6952	570756.020316761026	771
1	6961	571830.528214573899	772
1	6972	572489.799234923014	773
1	6981	573191.081778612027	774
1	6988	574014.754575351292	775
1	7001	575037.424581963607	776
1	7006	575470.633900025898	777
1	7015	576005.647219112181	778
1	7028	576839.124420750925	779
1	7033	577150.460674474055	780
1	7046	577806.839508097658	781
1	7051	578440.931577002669	782
1	7060	578915.53442152221	783
1	7073	579681.567580578888	784
1	7080	580550.335596129338	785
1	7087	581163.595211925025	786
1	7096	581889.457164192611	787
1	7105	582457.759498665149	788
1	7118	583853.861616784746	789
1	7127	584380.504746409172	790
1	7136	585263.174409884998	791
1	7145	586036.636389931702	792
1	7154	586934.466873435342	793
1	7163	587612.218126561531	794
1	7172	588438.616087334269	795
1	7177	588757.483091438228	796
1	7186	589390.158302988896	797
1	7195	589898.453787155488	798
1	7204	591212.785527203271	799
1	7213	591868.91908426773	800
1	7224	592725.596514483953	801
1	7235	593707.100956002289	802
1	7240	594156.983398273626	803
1	7249	594973.940158076623	804
1	7258	595456.40867888	805
1	7267	595987.382779642979	806
1	7276	597058.474534889723	807
1	7285	597534.196514776016	808
1	7294	598122.360472753683	809
1	7305	599151.43639887687	810
1	7312	599739.383244048843	811
1	7321	600396.695327013771	812
1	7334	601545.338686136568	813
1	7339	602031.675124028737	814
1	7352	603155.378500046248	815
1	7357	603821.287238085682	816
1	7366	604392.259772820437	817

