version 2
run Pipelined_3Teachers-54-20190105-10:57:30-1904
attr configname Pipelined_3Teachers
attr datetime 20190105-10:57:30
attr experiment Pipelined_3Teachers
attr inifile ../simulations/omnetpp.ini
attr iterationvars "$0=\"uniform\""
attr iterationvarsf uniform-
attr measurement "$0=\"uniform\""
attr network PipelinedExamSession
attr processid 1904
attr repetition 54
attr replication #54
attr resultdir results
attr runnumber 54
attr seedset 54
param **.teachersNumber 3
param **.answerTimeDistribution "\"uniform\""
param **.minUniform 300
param **.maxUniform 900
param **.scaleLognormal 6.2854
param **.shapeLognormal 0.4724

vector 0 PipelinedExamSession examinationTime:vector ETV
attr source examFinished
vector 1 PipelinedExamSession studentID:vector ETV
attr source student
0	3181	260438.346063997637	1758.1494037528
0	3192	261656.04241755795	2085.4394580703
0	3203	262524.931542668532	2442.0705670025
0	3208	263033.654630882706	2151.9337298814
0	3217	263510.739189013879	1840.570603637
0	3226	264221.160947531502	1696.229404863
0	3237	265653.614073386456	2384.2597447336
0	3248	266438.634693576063	2358.7736867834
0	3253	266860.784417577128	2004.3042840902
0	3266	268043.906896049197	2306.9718251936
0	3271	268491.779253166209	2053.1445595901
0	3282	269638.104960043024	2320.4698211979
0	3293	270541.19651564401	2497.2896195948
0	3300	271031.454654363956	2090.6203780789
0	3307	271541.862072330009	1747.8623322677
0	3320	272840.994035080117	2299.7975194361
0	3329	273702.006438933355	2533.4253641311
0	3336	274085.234424099368	2037.8873792477
0	3345	274848.526402143803	2007.5323670637
0	3352	275330.225529754576	1628.2190908212
0	3363	275927.485068468418	1736.3444401883
0	3372	276499.430142715614	1510.500162933
0	3383	277342.975614359644	1963.3311806247
0	3392	277821.199864056003	1815.4026650358
0	3401	278658.867315994617	1990.3812041972
0	3408	279426.778773218435	2083.8031588588
0	3419	280308.880909485784	2487.6810454298
0	3428	281025.203327648383	2366.3360116538
0	3437	281793.798861186993	2292.2586975619
0	3442	282296.166540635791	1987.28563115
0	3455	283206.218080921141	2181.0147532728
0	3460	283574.517234927086	1780.7183737401
0	3469	284317.868403391955	1778.8051906507
0	3478	284707.911872584415	1501.6937916633
0	3487	285142.461833450985	1223.9436327014
0	3498	286249.010950047565	1820.9015469532
0	3509	287218.461747793523	2154.0214679204
0	3516	287704.679909069133	1864.9030127563
0	3523	288521.162310987753	1969.1905810498
0	3534	289432.152112992523	2213.690365199
0	3543	289950.628608092708	2015.5945872422
0	3550	290428.665188374041	1801.2594689615
0	3563	291654.748327564491	2184.8626954481
0	3572	292526.313969260125	2480.6492529809
0	3579	292945.225502969741	2132.2960539255
0	3588	293728.130887029736	2073.3825594652
0	3597	294611.612245207696	2085.2982759476
0	3606	295514.15110160601	2182.1394669358
0	3613	295978.956217691346	1881.5051675309
0	3626	296967.413531290411	2199.9545697123
0	3631	297341.362714022442	1710.4389572516
0	3640	297947.858356777622	1675.7144518197
0	3649	298860.49347580415	1893.0799445137
0	3658	299685.749960923613	2121.6694438364
0	3667	300157.970745675311	1711.5078317933
0	3676	300841.580530861438	1591.7495537549
0	3687	301623.097024206118	1789.4344883971
0	3694	302112.249282142193	1592.2776202206
0	3703	302809.297678526537	1662.4017510563
0	3716	304069.585047941701	2234.466805961
0	3721	304381.207013921858	1836.2010462675
0	3732	305285.940263466956	2019.6373244282
0	3743	306338.295820914255	2268.7107729726
0	3752	307231.848459178628	2518.3288282715
0	3761	308052.130733896093	2471.6727162246
0	3766	308368.705223221378	2030.4094023071
0	3775	309232.005696650641	2000.157237472
0	3786	310313.701107306452	2261.5703734104
0	3795	311102.066675713332	2175.5354355555
0	3802	311582.237405469687	1901.5271358658
0	3815	312916.556223761335	2362.9954033066
0	3820	313267.646188801199	2060.8747757971
0	3829	313703.383431723386	1671.9230779912
0	3838	314794.014987302989	1877.4587635417
0	3847	315211.073004361287	1526.7836772837
0	3860	316194.657110609159	1897.3332128953
0	3865	316614.600831130564	1699.8209316283
0	3874	317445.892871730075	2143.9283187501
0	3883	318106.816853955433	1912.1597433463
0	3894	318797.528706025377	1779.2869409546
0	3903	319620.331559004307	1826.7362906132
0	3912	320343.68379679513	1938.7042589486
0	3923	321106.498349597723	2185.045268666
0	3928	321691.097962623508	2021.5274156537
0	3941	322577.874185890005	2161.5977722686
0	3946	323040.823599044279	1934.3252494466
0	3959	324075.909434678079	2287.6909838989
0	3968	324975.855523254768	2397.9813373648
0	3975	325547.997899819211	2206.7580623087
0	3982	325929.700663872109	1853.791229194
0	3995	327360.971108079002	2385.1155848242
0	4002	327887.125004176096	2229.8050333746
0	4009	328264.371594507293	1774.05742337
0	4018	329003.633710462645	1642.6626023836
0	4029	330164.748941408516	2060.6921521481
0	4036	330575.382919656159	1778.5797201097
0	4045	331376.532598771201	1900.5154736806
0	4056	332298.885617964015	2086.6272307467
0	4063	332636.178411310584	1729.9473779742
0	4072	333366.1674429663	1872.6236241404
0	4083	334157.168794982182	1792.1485739294
0	4094	335079.076856374788	2113.9190315735
0	4101	335562.037111865404	1850.9527426679
0	4108	336244.1608736292	1959.7097771242
0	4117	336886.966985464144	1807.8901290894
0	4126	337774.951399164321	1849.7928427532
0	4135	338190.128433890687	1680.2828558721
0	4148	339422.681562043774	2032.9803604167
0	4153	339995.2100262512	1870.3354918398
0	4166	341023.326501343447	2299.4166776072
0	4173	341476.164765190381	2053.4832031466
0	4182	342218.322277581367	1920.5667655449
0	4193	343104.834830062512	2081.5083287191
0	4202	343932.007321436006	2270.0319799595
0	4207	344657.854892592925	2298.8356289919
0	4216	345235.895924270201	2131.0610942077
0	4225	345746.046314109165	1814.0389926732
0	4238	347002.737495722297	2198.9634911064
0	4245	347395.087974797982	2030.0941077992
0	4252	348114.881990896586	2004.6720036305
0	4265	349540.297546936247	2537.5600512139
0	4272	350142.347560543615	2400.1590139233
0	4279	350701.424684934366	2060.8354124241
0	4290	351937.793965917129	2397.4964189809
0	4299	352778.260896541227	2443.9013193827
0	4310	353542.519852425952	2476.9501859788
0	4315	353950.70093194959	2000.1957340166
0	4326	355121.298472071116	2281.9728207774
0	4335	355916.287982370754	2373.7681299448
0	4342	356260.553739359652	1861.1189553514
0	4353	357327.013688581114	2201.8642276525
0	4364	358174.02293602941	2171.6309455689
0	4373	358933.383074495992	2233.2146647386
0	4380	359775.673548504761	2444.8264759965
0	4389	360390.932765090888	2216.9098290615
0	4396	360837.960854871248	1904.5777803753
0	4405	361323.310925904712	1539.2059572972
0	4414	361878.985780477574	1331.4350053668
0	4427	363238.662761589562	2257.9514030367
0	4436	364082.921983161991	2400.3911721054
0	4441	364811.783265788158	2358.2792137284
0	4452	365564.290036819925	2325.6272752304
0	4459	365921.797688724523	1838.8757055625
0	4472	367138.151218788748	2214.7796470206
0	4477	367625.878943782349	1976.8771870527
0	4488	368764.561023004403	2437.6487371512
0	4499	369592.36075677914	2454.2095379904
0	4508	370490.558460960215	2553.9301485289
0	4513	370969.9630840682	2166.7856703512
0	4522	371426.685740612498	1834.3249838334
0	4535	372586.657464131764	2096.0990031715
0	4540	372989.387490972928	1901.7944449559
0	4553	374066.05789102619	2293.5067538638
0	4562	374930.683255987293	2344.0257918555
0	4569	375688.923234259761	2393.1772212032
0	4578	376321.099974867008	2255.0420838408
0	4585	376978.86201767256	2048.1787616853
0	4596	377900.975278252787	2151.2922209222
0	4607	378920.630875602415	2422.1949710045
0	4614	379639.987976895696	2305.3625518922
0	4625	380474.463254073685	2313.603601791
0	4634	381287.62494167318	2366.9940660708
0	4641	381878.873779764449	2233.4448878188
0	4652	382741.213213093629	2266.7499590199
0	4659	383234.465080825662	1946.8401391525
0	4666	383667.5407392439	1751.3244980481
0	4679	384489.122986095076	1747.9097730014
0	4684	385041.760553978433	1686.7472819053
0	4693	385579.071833845278	1617.1020875685
0	4704	386323.251891229352	1834.1289051343
0	4707	386674.417969537949	1428.2288291026
0	4722	387801.291469764015	2012.5768625177
0	4733	388603.010784694976	1927.6326247025
0	4738	388983.960647508553	1601.3133559842
0	4749	389991.786164324782	2140.6095287763
0	4760	390845.659894589386	2242.6491098944
0	4765	391305.809642560831	2017.0072631445
0	4774	392159.819573024339	2082.6526440214
0	4783	392528.598953643866	1682.9390590545
0	4792	393641.899609146692	1923.6353994347
0	4803	394440.342608001135	2199.8128461186
0	4812	395040.375370346062	1936.7991231848
0	4819	395478.763830335863	1712.8035724629
0	4828	396425.704155676119	1918.45635809
0	4837	397072.959260875411	1865.2656728402
0	4848	397922.221403522468	1967.257868126
0	4859	399247.403776226617	2448.6637857277
0	4868	400119.048164365865	2576.545738522
0	4873	400503.840484097652	2147.8101960383
0	4886	401419.623791053943	2172.2200148273
0	4895	402244.907909492083	2125.8597451262
0	4900	402869.775238120981	2063.5770776309
0	4911	403861.846064776235	2442.2222737223
0	4920	404728.318225778692	2483.4103162866
0	4927	405290.589868789591	2187.8219971899
0	4940	406110.190878482588	2198.298765393
0	4945	406522.825585026347	1781.0608313419
0	4956	407651.475263619848	2146.063763788
0	4967	408308.528816420638	2198.337937938
0	4976	408939.063937123918	2035.6043661945
0	4983	409656.698689889216	1968.7519211322
0	4990	410107.277568150365	1798.7487517297
0	4999	410773.177329171502	1834.1133920476
0	5008	411293.906246731111	1491.110699717
0	5021	412085.157191148082	1731.1360727996
0	5026	412650.470946729237	1757.0830286946
0	5037	413240.211898880134	1788.5025660507
0	5046	414219.737305445651	2134.5801142976
0	5053	414986.554641276652	2237.9956583027
0	5064	415799.373954394887	2164.9529848248
0	5071	416249.053027248065	1923.9942576271
0	5082	417337.700111791546	2152.6304007042
0	5091	418014.388619782458	1974.3882092647
0	5100	418689.178030891399	1810.7981277164
0	5109	419542.687300359884	2136.3517194986
0	5118	420295.920295827144	2197.5174106658
0	5129	421288.891611434572	2393.1282766163
0	5138	422047.057692613505	2492.0322509017
0	5145	422799.701260356285	2372.1946984995
0	5154	423559.386090282403	2270.4944788478
0	5161	424010.788341611676	1963.7306489982
0	5174	424951.691140327655	2068.3728329837
0	5181	425682.498531974905	1958.79157288
0	5192	426522.458627633803	2125.6421495229
0	5201	427355.29463393619	2403.6034936085
0	5206	427706.869033444726	2002.5720101316
0	5219	428745.402017701471	2222.9433900677
0	5224	429154.499912727678	1799.2052787915
0	5233	430182.07004363654	2255.7717064396
0	5244	430988.005948998088	2242.6039312966
0	5255	431705.305337905938	2225.5355900154
0	5264	432325.444106385166	1970.0072108768
0	5273	433207.617033412734	2071.6835873667
0	5280	434023.844370665083	2318.5390327591
0	5291	434551.516885450164	2226.072779065
0	5298	435043.265224853585	1835.6481914409
0	5307	435769.947690004537	1732.6611338183
0	5316	436434.328921185861	1882.8120357357
0	5325	437033.76601338392	1901.3432839885
0	5332	437513.180042523945	1620.7665192895
0	5341	438189.864011574592	1583.5100142751
0	5354	439050.905868457685	1741.1785367411
0	5359	439771.398827852736	1742.8329356946
0	5368	440487.532750843147	2059.3099922407
0	5377	440966.305996896754	1915.4001284391
0	5390	441722.919930657428	1894.3767091725
0	5397	442586.232234444525	1931.9484406617
0	5406	443327.465054299738	2332.7946775127
0	5417	444022.280134493542	2299.3602038361
0	5424	444641.27311678609	2022.0237839967
0	5431	445168.783574039173	1788.5345981922
0	5444	446225.398061564249	2203.1179270707
0	5449	446699.335513031167	1989.8649746552
0	5458	447757.719189813417	2196.9856949989
0	5467	448249.310122244117	2023.9120606799
0	5478	449393.257710104865	2417.5884734374
0	5485	449780.74223133741	1918.7770865858
0	5496	450709.846816677657	2001.4260878786
0	5507	451846.479760855493	2391.1167842802
0	5514	452544.474099297133	2349.782569427
0	5525	453588.764178520126	2562.7175540663
0	5534	454464.657318592129	2618.1775577366
0	5539	454872.959288489131	2140.4262186494
0	5550	455844.23760208307	2255.4734235629
0	5559	456383.61456915742	1918.9572505653
0	5568	456875.651850085764	1623.4702357091
0	5575	457775.305927824288	1832.5806152076
0	5586	458754.479192616476	2283.4330575541
0	5593	459132.662551151647	1842.9385953583
0	5602	460125.801539607403	2083.7236708961
0	5611	460502.959290286584	1618.2893704623
0	5622	461752.098990418075	2174.0841716062
0	5629	462252.429092768638	2044.6333584376
0	5638	463062.885609269201	2036.9506385643
0	5649	464033.028057916149	2269.0979836509
0	5660	464847.489917697444	2388.4477171116
0	5667	465451.570991193935	2112.5771166757
0	5674	465868.916860967934	1782.7339600772
0	5687	466615.266385953933	1767.7764682565
0	5694	467166.946561960563	1608.7673433591
0	5703	467823.447233252287	1710.5132038705
0	5710	468499.807559559181	1884.5411736052
0	5723	469431.051151547641	2071.2795025203
0	5728	469787.011319864601	1602.5855866726
0	5737	470607.679074537069	1892.6485364791
0	5750	471588.903050730065	2157.8518991824
0	5759	472278.780299099222	2300.0783767551
0	5766	472822.885667346478	2119.4622175768
0	5777	473626.99763760908	2038.094586879
0	5782	474038.199537992538	1759.4192388933
0	5793	475151.359390094937	1974.4687368628
0	5800	475730.128621542887	2103.1309839338
0	5813	476617.416863422901	2162.9861649591
0	5820	477160.05002874887	1896.7671726365
0	5829	478022.049985919208	2047.1796726342
0	5840	478925.121410982744	2307.7045475598
0	5847	479286.498507717685	1809.6730738878
0	5854	480179.130997415692	1848.9070668351
0	5865	480765.545394318239	1840.4239833355
0	5872	481066.060993960188	1424.1357958876
0	5881	482138.802489358992	1822.6760422345
0	5890	482899.991725757778	2057.2581558488
0	5903	484186.878377432065	2515.0990464259
0	5910	484527.713087853106	2004.2113567237
0	5917	484899.746812786968	1542.9369114339
0	5926	485548.596768407212	1361.7183909751
0	5935	486231.933569116579	1666.9486613944
0	5944	487315.217355033445	2177.1688333713
0	5957	488277.733847871485	2489.8409939837
0	5962	488832.975857332411	2158.1675310619
0	5971	489624.503645394059	2170.7884241827
0	5984	490602.530049858677	2324.7962019872
0	5993	491432.155363820555	2405.4130705073
0	6000	491949.847403029042	2060.3965099901
0	6007	492438.072005845668	1835.541955987
0	6016	493314.135721838164	1881.9803580176
0	6029	494565.116615686628	2264.6318740211
0	6038	495322.623704792994	2138.0897185765
0	6045	495689.481956698063	1828.9509281516
0	6054	496588.890813058305	2023.7741973717
0	6065	497408.221040200505	2085.5973354075
0	6070	497911.582747986603	2119.702702621
0	6079	498654.554598871682	2006.8070696667
0	6090	499464.662214880872	2056.4411746804
0	6097	499788.429084979061	1560.7120965142
0	6106	500315.482174186099	1293.0304849986
0	6119	501579.010117985372	2070.540120732
0	6124	502008.182495087449	1953.6179980729
0	6135	502896.809308882867	1967.1536173671
0	6146	503768.416361510818	2189.4062435254
0	6155	504653.247311711376	2331.2037331983
0	6162	505019.91472053348	2041.9841604307
0	6169	505519.149427022849	1750.733065512
0	6180	506432.468315027719	1779.2210033163
0	6189	507317.231396818598	2239.5442023408
0	6200	508153.508780524199	2194.7382939979
0	6209	508884.449017234211	2127.1869718563
0	6216	509357.384085143049	1859.2748754658
0	6223	509950.174144143303	1796.6653636191
0	6236	511119.84660183086	2235.3975845966
0	6245	511905.569635843923	2265.3678516392
0	6252	512623.175700847124	2382.4162054807
0	6263	513232.920788973635	2113.0741871428
0	6268	513918.424656707859	2012.8550208639
0	6279	514837.029681075429	2033.4708895069
0	6286	515303.563556168293	2070.6427671947
0	6297	516360.256768344035	2228.9291733876
0	6306	517222.37214208587	2279.2553960346
0	6317	518116.033840784869	2401.616871357
0	6326	518793.391197966478	2193.5152445454
0	6333	519322.231694636933	2089.3506382126
0	6340	520002.857351582564	1886.8235107977
0	6353	520887.078194785929	2093.6869968195
0	6358	521473.219827096975	1796.4518778026
0	6367	522053.717707470125	1859.9086676259
0	6376	522893.288153316892	2006.209958531
0	6387	523893.48091674044	2127.2694291081
0	6390	524231.118935812332	1566.2329099607
0	6405	525867.548831692033	2396.9733857084
0	6416	526734.871858265319	2481.9930018391
0	6421	527072.76535076096	1935.9862798825
0	6430	527728.789102379301	1764.9495916441
0	6441	528250.063745817237	1515.1918875519
0	6452	529234.190821833977	1811.1383829731
0	6459	529926.235975837403	2128.258536011
0	6468	530713.211667398059	2355.8188667055
0	6475	531125.249515380779	1891.0586935468
0	6486	531937.881739810178	2002.9263492208
0	6497	532678.789220843533	1906.5593941603
0	6506	533406.422777473995	2012.2419023886
0	6511	533721.026485087418	1777.1082606632
0	6524	534864.322985569083	2185.5337647256
0	6533	535566.695279488408	2160.2725020144
0	6542	536393.051377683946	2335.2186044678
0	6551	537142.36545274041	2278.0424671713
0	6558	537938.205518340761	2371.5102388524
0	6565	538339.574219891871	1946.5228422079
0	6574	539154.081745678628	2011.7162929382
0	6585	539980.200852686608	1949.8521556612
0	6594	540871.370468242164	2276.2143177912
0	6603	541444.443279504846	2101.1666646693
0	6612	542348.686656681891	2150.1263588201
0	6623	543088.104245625507	2171.4783341624
0	6632	543764.179914118793	2166.1032980774
0	6639	544239.78479532532	1853.5934164189
0	6646	544807.804643875059	1719.7003982496
0	6657	545759.767126059231	1995.5872119404
0	6668	546631.236596452144	2186.2083449028
0	6673	547112.725340528485	1872.6682252251
0	6686	548128.546495735717	2355.2021588199
0	6691	548446.417566854578	1815.1809704024
0	6702	549489.620301732865	2095.873308694
0	6711	550595.647340873327	2467.1008451376
0	6720	551194.187617627975	2174.2434835061
0	6727	551628.136995295134	1749.3154583964
0	6736	552525.027910480347	1802.2933964152
0	6747	553348.516056547013	2137.5157338101
0	6754	553949.307920225036	2056.4918959513
0	6765	554668.606150383201	1934.0183294378
0	6772	555199.277834175225	1761.04982947
0	6785	556407.036789553311	2248.7273067702
0	6792	556830.848954245519	1944.2902954761
0	6803	557721.638965001401	1945.7723821979
0	6810	558610.101733915579	2203.0649443623
0	6821	559167.354161152687	2196.24667014
0	6826	559509.140099119466	1787.5011341181
0	6839	560722.042971476984	2105.4610112216
0	6848	561264.086044672948	2096.7318835203
0	6855	561828.586282068935	1831.5119891893
0	6862	562542.867466248643	1820.8244947717
0	6871	563381.308375345614	2117.2223306727
0	6880	563912.818240514097	1898.9036130253
0	6889	564949.483434017819	2118.0092033464
0	6900	565997.401029383836	2272.2109673079
0	6911	566843.068049708454	2374.9759060331
0	6920	567535.512863751574	2231.6294983495
0	6925	567979.652326740398	1803.1902087852
0	6936	569056.768797151818	2213.7007474434
0	6945	569658.495764108448	2122.9829003569
0	6952	570050.003299769088	1685.4480572976
0	6961	570892.152544995844	1707.7533478383
0	6970	571539.984496962353	1837.7881980501
0	6979	572231.343490630462	1755.4924516473
0	6990	573279.068058449848	2041.9411418494
0	6997	573766.032126825376	1637.5404226128
0	7006	574589.095259271636	1927.7495716698
0	7017	575491.899056173935	1962.91070804
0	7028	576382.257596170604	1963.1102874409
0	7035	576691.606736462638	1897.9827574454
0	7046	577804.439074359908	2186.129446188
0	7051	578142.296120664179	1760.0385244936
0	7060	578962.269187811836	1792.5578586292
0	7071	579446.270014252587	1641.8309398927
0	7080	580380.906205019056	1810.1767469198
0	7089	581247.69059303224	2135.3673427831
0	7096	581611.593165295272	1858.1163892988
0	7105	583132.877832977176	2590.0667420123
0	7114	583690.382407978252	2263.1815193687
0	7125	584322.123553790227	2002.4987486657
0	7134	585158.633485436514	1955.4577657487
0	7141	586041.896594502106	2202.5515543297
0	7150	586854.538677167222	2155.445381999
0	7163	587704.497675178647	2226.1478552129
0	7172	588409.626220772117	2041.6556894314
0	7179	589140.77310925357	1984.4958823174
0	7188	590150.038721412495	2445.5410462338
0	7197	590769.771017599926	2360.1447968278
0	7204	591102.964223083183	1802.4989243131
0	7213	591562.491013482287	1387.7406262793
0	7222	592469.084196304977	1671.2941043079
0	7233	593393.893181858659	2087.9166147206
0	7242	594269.58828424111	2311.7867347319
0	7251	594915.68179149188	2148.0588032864
0	7260	595510.302726226001	1959.1382369399
0	7267	595949.618119793086	1521.9336242415
0	7276	596504.567535454481	1502.5674504228
0	7287	597296.534996945485	1733.7810622528
0	7296	597869.822556478977	1851.4122028369
0	7305	598727.537881024256	2003.4933483694
0	7312	599073.964039469212	1623.1182163116
0	7321	600111.201026849524	1974.9595291447
0	7332	601207.267681136802	2190.0192207657
0	7343	602099.686764646396	2266.2148877978
0	7352	602975.882675545365	2429.228836298
0	7361	603683.582275919691	2297.5102324504
0	7368	604369.570492627174	2269.8837279808
1	3181	260438.346063997637	352
1	3192	261656.04241755795	353
1	3203	262524.931542668532	354
1	3208	263033.654630882706	355
1	3217	263510.739189013879	356
1	3226	264221.160947531502	357
1	3237	265653.614073386456	358
1	3248	266438.634693576063	359
1	3253	266860.784417577128	360
1	3266	268043.906896049197	361
1	3271	268491.779253166209	362
1	3282	269638.104960043024	363
1	3293	270541.19651564401	364
1	3300	271031.454654363956	365
1	3307	271541.862072330009	366
1	3320	272840.994035080117	367
1	3329	273702.006438933355	368
1	3336	274085.234424099368	369
1	3345	274848.526402143803	370
1	3352	275330.225529754576	371
1	3363	275927.485068468418	372
1	3372	276499.430142715614	373
1	3383	277342.975614359644	374
1	3392	277821.199864056003	375
1	3401	278658.867315994617	376
1	3408	279426.778773218435	377
1	3419	280308.880909485784	378
1	3428	281025.203327648383	379
1	3437	281793.798861186993	380
1	3442	282296.166540635791	381
1	3455	283206.218080921141	382
1	3460	283574.517234927086	383
1	3469	284317.868403391955	384
1	3478	284707.911872584415	385
1	3487	285142.461833450985	386
1	3498	286249.010950047565	387
1	3509	287218.461747793523	388
1	3516	287704.679909069133	389
1	3523	288521.162310987753	390
1	3534	289432.152112992523	391
1	3543	289950.628608092708	392
1	3550	290428.665188374041	393
1	3563	291654.748327564491	394
1	3572	292526.313969260125	395
1	3579	292945.225502969741	396
1	3588	293728.130887029736	397
1	3597	294611.612245207696	398
1	3606	295514.15110160601	399
1	3613	295978.956217691346	400
1	3626	296967.413531290411	401
1	3631	297341.362714022442	402
1	3640	297947.858356777622	403
1	3649	298860.49347580415	404
1	3658	299685.749960923613	405
1	3667	300157.970745675311	406
1	3676	300841.580530861438	407
1	3687	301623.097024206118	408
1	3694	302112.249282142193	409
1	3703	302809.297678526537	410
1	3716	304069.585047941701	411
1	3721	304381.207013921858	412
1	3732	305285.940263466956	413
1	3743	306338.295820914255	414
1	3752	307231.848459178628	415
1	3761	308052.130733896093	416
1	3766	308368.705223221378	417
1	3775	309232.005696650641	418
1	3786	310313.701107306452	419
1	3795	311102.066675713332	420
1	3802	311582.237405469687	421
1	3815	312916.556223761335	422
1	3820	313267.646188801199	423
1	3829	313703.383431723386	424
1	3838	314794.014987302989	425
1	3847	315211.073004361287	426
1	3860	316194.657110609159	427
1	3865	316614.600831130564	428
1	3874	317445.892871730075	429
1	3883	318106.816853955433	430
1	3894	318797.528706025377	431
1	3903	319620.331559004307	432
1	3912	320343.68379679513	433
1	3923	321106.498349597723	434
1	3928	321691.097962623508	435
1	3941	322577.874185890005	436
1	3946	323040.823599044279	437
1	3959	324075.909434678079	438
1	3968	324975.855523254768	439
1	3975	325547.997899819211	440
1	3982	325929.700663872109	441
1	3995	327360.971108079002	442
1	4002	327887.125004176096	443
1	4009	328264.371594507293	444
1	4018	329003.633710462645	445
1	4029	330164.748941408516	446
1	4036	330575.382919656159	447
1	4045	331376.532598771201	448
1	4056	332298.885617964015	449
1	4063	332636.178411310584	450
1	4072	333366.1674429663	451
1	4083	334157.168794982182	452
1	4094	335079.076856374788	453
1	4101	335562.037111865404	454
1	4108	336244.1608736292	455
1	4117	336886.966985464144	456
1	4126	337774.951399164321	457
1	4135	338190.128433890687	458
1	4148	339422.681562043774	459
1	4153	339995.2100262512	460
1	4166	341023.326501343447	461
1	4173	341476.164765190381	462
1	4182	342218.322277581367	463
1	4193	343104.834830062512	464
1	4202	343932.007321436006	465
1	4207	344657.854892592925	466
1	4216	345235.895924270201	467
1	4225	345746.046314109165	468
1	4238	347002.737495722297	469
1	4245	347395.087974797982	470
1	4252	348114.881990896586	471
1	4265	349540.297546936247	472
1	4272	350142.347560543615	473
1	4279	350701.424684934366	474
1	4290	351937.793965917129	475
1	4299	352778.260896541227	476
1	4310	353542.519852425952	477
1	4315	353950.70093194959	478
1	4326	355121.298472071116	479
1	4335	355916.287982370754	480
1	4342	356260.553739359652	481
1	4353	357327.013688581114	482
1	4364	358174.02293602941	483
1	4373	358933.383074495992	484
1	4380	359775.673548504761	485
1	4389	360390.932765090888	486
1	4396	360837.960854871248	487
1	4405	361323.310925904712	488
1	4414	361878.985780477574	489
1	4427	363238.662761589562	490
1	4436	364082.921983161991	491
1	4441	364811.783265788158	492
1	4452	365564.290036819925	493
1	4459	365921.797688724523	494
1	4472	367138.151218788748	495
1	4477	367625.878943782349	496
1	4488	368764.561023004403	497
1	4499	369592.36075677914	498
1	4508	370490.558460960215	499
1	4513	370969.9630840682	500
1	4522	371426.685740612498	501
1	4535	372586.657464131764	502
1	4540	372989.387490972928	503
1	4553	374066.05789102619	504
1	4562	374930.683255987293	505
1	4569	375688.923234259761	506
1	4578	376321.099974867008	507
1	4585	376978.86201767256	508
1	4596	377900.975278252787	509
1	4607	378920.630875602415	510
1	4614	379639.987976895696	511
1	4625	380474.463254073685	512
1	4634	381287.62494167318	513
1	4641	381878.873779764449	514
1	4652	382741.213213093629	515
1	4659	383234.465080825662	516
1	4666	383667.5407392439	517
1	4679	384489.122986095076	518
1	4684	385041.760553978433	519
1	4693	385579.071833845278	520
1	4704	386323.251891229352	521
1	4707	386674.417969537949	522
1	4722	387801.291469764015	523
1	4733	388603.010784694976	524
1	4738	388983.960647508553	525
1	4749	389991.786164324782	526
1	4760	390845.659894589386	527
1	4765	391305.809642560831	528
1	4774	392159.819573024339	529
1	4783	392528.598953643866	530
1	4792	393641.899609146692	531
1	4803	394440.342608001135	532
1	4812	395040.375370346062	533
1	4819	395478.763830335863	534
1	4828	396425.704155676119	535
1	4837	397072.959260875411	536
1	4848	397922.221403522468	537
1	4859	399247.403776226617	538
1	4868	400119.048164365865	539
1	4873	400503.840484097652	540
1	4886	401419.623791053943	541
1	4895	402244.907909492083	542
1	4900	402869.775238120981	543
1	4911	403861.846064776235	544
1	4920	404728.318225778692	545
1	4927	405290.589868789591	546
1	4940	406110.190878482588	547
1	4945	406522.825585026347	548
1	4956	407651.475263619848	549
1	4967	408308.528816420638	550
1	4976	408939.063937123918	551
1	4983	409656.698689889216	552
1	4990	410107.277568150365	553
1	4999	410773.177329171502	554
1	5008	411293.906246731111	555
1	5021	412085.157191148082	556
1	5026	412650.470946729237	557
1	5037	413240.211898880134	558
1	5046	414219.737305445651	559
1	5053	414986.554641276652	560
1	5064	415799.373954394887	561
1	5071	416249.053027248065	562
1	5082	417337.700111791546	563
1	5091	418014.388619782458	564
1	5100	418689.178030891399	565
1	5109	419542.687300359884	566
1	5118	420295.920295827144	567
1	5129	421288.891611434572	568
1	5138	422047.057692613505	569
1	5145	422799.701260356285	570
1	5154	423559.386090282403	571
1	5161	424010.788341611676	572
1	5174	424951.691140327655	573
1	5181	425682.498531974905	574
1	5192	426522.458627633803	575
1	5201	427355.29463393619	576
1	5206	427706.869033444726	577
1	5219	428745.402017701471	578
1	5224	429154.499912727678	579
1	5233	430182.07004363654	580
1	5244	430988.005948998088	581
1	5255	431705.305337905938	582
1	5264	432325.444106385166	583
1	5273	433207.617033412734	584
1	5280	434023.844370665083	585
1	5291	434551.516885450164	586
1	5298	435043.265224853585	587
1	5307	435769.947690004537	588
1	5316	436434.328921185861	589
1	5325	437033.76601338392	590
1	5332	437513.180042523945	591
1	5341	438189.864011574592	592
1	5354	439050.905868457685	593
1	5359	439771.398827852736	594
1	5368	440487.532750843147	595
1	5377	440966.305996896754	596
1	5390	441722.919930657428	597
1	5397	442586.232234444525	598
1	5406	443327.465054299738	599
1	5417	444022.280134493542	600
1	5424	444641.27311678609	601
1	5431	445168.783574039173	602
1	5444	446225.398061564249	603
1	5449	446699.335513031167	604
1	5458	447757.719189813417	605
1	5467	448249.310122244117	606
1	5478	449393.257710104865	607
1	5485	449780.74223133741	608
1	5496	450709.846816677657	609
1	5507	451846.479760855493	610
1	5514	452544.474099297133	611
1	5525	453588.764178520126	612
1	5534	454464.657318592129	613
1	5539	454872.959288489131	614
1	5550	455844.23760208307	615
1	5559	456383.61456915742	616
1	5568	456875.651850085764	617
1	5575	457775.305927824288	618
1	5586	458754.479192616476	619
1	5593	459132.662551151647	620
1	5602	460125.801539607403	621
1	5611	460502.959290286584	622
1	5622	461752.098990418075	623
1	5629	462252.429092768638	624
1	5638	463062.885609269201	625
1	5649	464033.028057916149	626
1	5660	464847.489917697444	627
1	5667	465451.570991193935	628
1	5674	465868.916860967934	629
1	5687	466615.266385953933	630
1	5694	467166.946561960563	631
1	5703	467823.447233252287	632
1	5710	468499.807559559181	633
1	5723	469431.051151547641	634
1	5728	469787.011319864601	635
1	5737	470607.679074537069	636
1	5750	471588.903050730065	637
1	5759	472278.780299099222	638
1	5766	472822.885667346478	639
1	5777	473626.99763760908	640
1	5782	474038.199537992538	641
1	5793	475151.359390094937	642
1	5800	475730.128621542887	643
1	5813	476617.416863422901	644
1	5820	477160.05002874887	645
1	5829	478022.049985919208	646
1	5840	478925.121410982744	647
1	5847	479286.498507717685	648
1	5854	480179.130997415692	649
1	5865	480765.545394318239	650
1	5872	481066.060993960188	651
1	5881	482138.802489358992	652
1	5890	482899.991725757778	653
1	5903	484186.878377432065	654
1	5910	484527.713087853106	655
1	5917	484899.746812786968	656
1	5926	485548.596768407212	657
1	5935	486231.933569116579	658
1	5944	487315.217355033445	659
1	5957	488277.733847871485	660
1	5962	488832.975857332411	661
1	5971	489624.503645394059	662
1	5984	490602.530049858677	663
1	5993	491432.155363820555	664
1	6000	491949.847403029042	665
1	6007	492438.072005845668	666
1	6016	493314.135721838164	667
1	6029	494565.116615686628	668
1	6038	495322.623704792994	669
1	6045	495689.481956698063	670
1	6054	496588.890813058305	671
1	6065	497408.221040200505	672
1	6070	497911.582747986603	673
1	6079	498654.554598871682	674
1	6090	499464.662214880872	675
1	6097	499788.429084979061	676
1	6106	500315.482174186099	677
1	6119	501579.010117985372	678
1	6124	502008.182495087449	679
1	6135	502896.809308882867	680
1	6146	503768.416361510818	681
1	6155	504653.247311711376	682
1	6162	505019.91472053348	683
1	6169	505519.149427022849	684
1	6180	506432.468315027719	685
1	6189	507317.231396818598	686
1	6200	508153.508780524199	687
1	6209	508884.449017234211	688
1	6216	509357.384085143049	689
1	6223	509950.174144143303	690
1	6236	511119.84660183086	691
1	6245	511905.569635843923	692
1	6252	512623.175700847124	693
1	6263	513232.920788973635	694
1	6268	513918.424656707859	695
1	6279	514837.029681075429	696
1	6286	515303.563556168293	697
1	6297	516360.256768344035	698
1	6306	517222.37214208587	699
1	6317	518116.033840784869	700
1	6326	518793.391197966478	701
1	6333	519322.231694636933	702
1	6340	520002.857351582564	703
1	6353	520887.078194785929	704
1	6358	521473.219827096975	705
1	6367	522053.717707470125	706
1	6376	522893.288153316892	707
1	6387	523893.48091674044	708
1	6390	524231.118935812332	709
1	6405	525867.548831692033	710
1	6416	526734.871858265319	711
1	6421	527072.76535076096	712
1	6430	527728.789102379301	713
1	6441	528250.063745817237	714
1	6452	529234.190821833977	715
1	6459	529926.235975837403	716
1	6468	530713.211667398059	717
1	6475	531125.249515380779	718
1	6486	531937.881739810178	719
1	6497	532678.789220843533	720
1	6506	533406.422777473995	721
1	6511	533721.026485087418	722
1	6524	534864.322985569083	723
1	6533	535566.695279488408	724
1	6542	536393.051377683946	725
1	6551	537142.36545274041	726
1	6558	537938.205518340761	727
1	6565	538339.574219891871	728
1	6574	539154.081745678628	729
1	6585	539980.200852686608	730
1	6594	540871.370468242164	731
1	6603	541444.443279504846	732
1	6612	542348.686656681891	733
1	6623	543088.104245625507	734
1	6632	543764.179914118793	735
1	6639	544239.78479532532	736
1	6646	544807.804643875059	737
1	6657	545759.767126059231	738
1	6668	546631.236596452144	739
1	6673	547112.725340528485	740
1	6686	548128.546495735717	741
1	6691	548446.417566854578	742
1	6702	549489.620301732865	743
1	6711	550595.647340873327	744
1	6720	551194.187617627975	745
1	6727	551628.136995295134	746
1	6736	552525.027910480347	747
1	6747	553348.516056547013	748
1	6754	553949.307920225036	749
1	6765	554668.606150383201	750
1	6772	555199.277834175225	751
1	6785	556407.036789553311	752
1	6792	556830.848954245519	753
1	6803	557721.638965001401	754
1	6810	558610.101733915579	755
1	6821	559167.354161152687	756
1	6826	559509.140099119466	757
1	6839	560722.042971476984	758
1	6848	561264.086044672948	759
1	6855	561828.586282068935	760
1	6862	562542.867466248643	761
1	6871	563381.308375345614	762
1	6880	563912.818240514097	763
1	6889	564949.483434017819	764
1	6900	565997.401029383836	765
1	6911	566843.068049708454	766
1	6920	567535.512863751574	767
1	6925	567979.652326740398	768
1	6936	569056.768797151818	769
1	6945	569658.495764108448	770
1	6952	570050.003299769088	771
1	6961	570892.152544995844	772
1	6970	571539.984496962353	773
1	6979	572231.343490630462	774
1	6990	573279.068058449848	775
1	6997	573766.032126825376	776
1	7006	574589.095259271636	777
1	7017	575491.899056173935	778
1	7028	576382.257596170604	779
1	7035	576691.606736462638	780
1	7046	577804.439074359908	781
1	7051	578142.296120664179	782
1	7060	578962.269187811836	783
1	7071	579446.270014252587	784
1	7080	580380.906205019056	785
1	7089	581247.69059303224	786
1	7096	581611.593165295272	787
1	7105	583132.877832977176	788
1	7114	583690.382407978252	789
1	7125	584322.123553790227	790
1	7134	585158.633485436514	791
1	7141	586041.896594502106	792
1	7150	586854.538677167222	793
1	7163	587704.497675178647	794
1	7172	588409.626220772117	795
1	7179	589140.77310925357	796
1	7188	590150.038721412495	797
1	7197	590769.771017599926	798
1	7204	591102.964223083183	799
1	7213	591562.491013482287	800
1	7222	592469.084196304977	801
1	7233	593393.893181858659	802
1	7242	594269.58828424111	803
1	7251	594915.68179149188	804
1	7260	595510.302726226001	805
1	7267	595949.618119793086	806
1	7276	596504.567535454481	807
1	7287	597296.534996945485	808
1	7296	597869.822556478977	809
1	7305	598727.537881024256	810
1	7312	599073.964039469212	811
1	7321	600111.201026849524	812
1	7332	601207.267681136802	813
1	7343	602099.686764646396	814
1	7352	602975.882675545365	815
1	7361	603683.582275919691	816
1	7368	604369.570492627174	817

