version 2
run Pipeline_7teachers-16-20181220-18:43:16-4120
attr configname Pipeline_7teachers
attr datetime 20181220-18:43:16
attr experiment Pipeline_7teachers
attr inifile omnetpp.ini
attr iterationvars "$0=\"lognormal\""
attr iterationvarsf lognormal-
attr measurement "$0=\"lognormal\""
attr network PipelinedExamSession
attr processid 4120
attr repetition 6
attr replication #6
attr resultdir results
attr runnumber 16
attr seedset 6
param **.teachersNumber 7
param **.answerTimeDistribution "\"lognormal\""
param **.minUniform 300
param **.maxUniform 1800
param **.scaleLognormal 6.8153
param **.shapeLognormal 0.5316

vector 0 PipelinedExamSession examinationTime:vector ETV
attr source examFinished
vector 1 PipelinedExamSession studentsWaitingTime:vector ETV
attr source waitingTime
vector 2 PipelinedExamSession teachersIdleTime:vector ETV
attr source idleTime
0	63	8610.621691818527	8610.6216918185
0	80	10077.055580921584	7437.8072457802
0	99	12496.460045232338	7598.751741726
0	118	13516.470612121293	6990.9775501818
0	175	17021.811505480878	9218.3180384936
0	186	18134.978909069669	6678.8817576919
0	199	19012.06392492403	6401.1175321087
0	236	20379.685529123048	6765.5612116114
0	253	21696.475943826014	5789.4242065416
0	314	25820.501280578019	8971.7703821468
0	347	28369.900670024258	9916.8540838546
0	362	29048.846053970087	9680.2661732454
0	393	31102.337865702736	9796.3057410116
0	396	31508.983378997686	9310.8747437519
0	423	32870.319115752647	9874.138340332
0	460	35847.408187627773	10605.569729343
0	489	37241.062215934002	10549.078904929
0	512	38400.000772946107	10030.100102922
0	519	38697.435106620648	8819.7689583432
0	534	39457.010131080308	7791.3623171582
0	563	40688.843566215005	7181.9005157803
0	586	42520.574911446448	7486.6599904326
0	605	43920.297934836647	7521.6541344659
0	652	47345.894188072773	9246.7782299917
0	685	48924.323248744577	9030.5586392358
0	704	50171.315660584291	8393.2613327393
0	741	52975.733670269901	10165.201899959
0	770	55266.195363802715	10114.239282317
0	783	56006.245622829497	9749.8651474783
0	812	57452.256756754852	9873.5407819849
0	839	58529.825026226295	9875.3115201071
0	872	62300.128315002705	10806.786051337
0	887	63044.349837956752	11066.97934578
0	920	64759.770085763552	10601.064673188
0	935	65404.296668253921	9187.361142295
0	970	67516.653149248013	10350.417232262
0	993	69080.010372008092	10992.162102632
0	1022	74641.894990179214	14266.832341953
0	1037	75234.926512195884	12934.798197193
0	1064	77976.556130289646	14613.79481837
0	1077	79011.402775786015	13907.37078022
0	1090	80168.432764404972	13861.383517885
0	1125	82298.27553849081	14103.383110403
0	1136	82823.856248943433	12802.320219164
0	1153	83786.065082096649	9144.1700919174
0	1192	87384.933772300256	10361.042318571
0	1213	89633.977554275965	9791.7150802309
0	1244	91687.335313019494	9638.6369978565
0	1253	92296.081664673426	9153.7881720418
0	1278	93729.764937495132	7534.2836828776
0	1307	95591.352788549685	8456.4527543805
0	1358	98783.939044948365	8411.4470724206
0	1375	100170.644032267968	7723.7286416788
0	1386	100859.345705725532	7272.456229952
0	1415	103202.205488506627	8283.3261644044
0	1426	104192.50064397209	7772.8647372105
0	1437	106262.957598994806	8295.6345270129
0	1486	111101.923156875472	10329.423047743
0	1499	113356.353947145928	10282.229578558
0	1548	116410.016469082163	10515.269333774
0	1569	117574.500088896103	10105.471039931
0	1584	118760.929015124122	8509.9591481282
0	1639	123065.518787950787	10026.11032347
0	1654	124594.825467153745	10367.010504864
0	1683	126845.997892160488	10785.872583489
0	1708	128748.231393524045	10537.738341155
0	1745	131165.989594126123	11678.453333323
0	1754	131954.288917552189	11165.134353834
0	1761	133513.023556886279	10989.529587899
0	1790	135464.432750903775	10766.186817026
0	1835	138418.883648979494	11134.857848089
0	1844	139205.945167891714	10227.306335083
0	1867	140526.556738719367	10545.806043935
0	1916	143904.228860944042	9818.4587863624
0	1947	147945.025946814465	12702.412425777
0	1972	149170.148329213129	12138.476047677
0	1991	149940.703597762493	11807.622356791
0	2020	151843.785308293843	11862.068819335
0	2047	154421.83140611062	12808.516912394
0	2068	156399.444433614797	12868.417171965
0	2091	157674.845231315359	13186.748422666
0	2110	159126.371109945077	11181.345163131
0	2127	160119.778696028001	10949.630366815
0	2136	160583.960628404047	10398.977204278
0	2149	161461.462845799649	8699.6269454049
0	2182	163455.790602417465	9033.9591963068
0	2215	166226.174554874254	9321.7728376594
0	2272	170531.374049113492	10801.701256095
0	2297	172463.481328397731	11407.44141493
1	63	8610.621691818527	0
1	80	10077.055580921584	1230.0412646923
1	99	12496.460045232338	454.09553745042
1	118	13516.470612121293	2061.7890277256
1	175	17021.811505480878	0
1	186	18134.978909069669	145.11050041818
1	199	19012.06392492403	1417.8653215595
1	236	20379.685529123048	0
1	253	21696.475943826014	1089.3628740135
1	314	25820.501280578019	1564.9940595529
1	347	28369.900670024258	958.16263647105
1	362	29048.846053970087	2917.6965800852
1	393	31102.337865702736	2824.1030403059
1	396	31508.983378997686	4029.9393837944
1	423	32870.319115752647	2587.8000199498
1	460	35847.408187627773	2914.4891755105
1	489	37241.062215934002	4359.5270512185
1	512	38400.000772946107	2582.1212263287
1	519	38697.435106620648	2640.5247431443
1	534	39457.010131080308	1605.9233603105
1	563	40688.843566215005	1319.3676580297
1	586	42520.574911446448	1029.1674799408
1	605	43920.297934836647	1093.9162388225
1	652	47345.894188072773	1421.1763151696
1	685	48924.323248744577	1415.0474843325
1	704	50171.315660584291	781.76340710223
1	741	52975.733670269901	1259.1616059091
1	770	55266.195363802715	2681.147238953
1	783	56006.245622829497	4615.2646925834
1	812	57452.256756754852	2500.0386597296
1	839	58529.825026226295	1799.0729708313
1	872	62300.128315002705	2657.4900866715
1	887	63044.349837956752	4536.6214987305
1	920	64759.770085763552	3360.4838701854
1	935	65404.296668253921	3416.9400097848
1	970	67516.653149248013	3446.5423827987
1	993	69080.010372008092	5075.8665682861
1	1022	74641.894990179214	2922.4489162357
1	1037	75234.926512195884	6093.5621817908
1	1064	77976.556130289646	7030.425634043
1	1077	79011.402775786015	7142.4271432031
1	1090	80168.432764404972	8015.666593778
1	1125	82298.27553849081	5445.6411654331
1	1136	82823.856248943433	6313.7618344889
1	1153	83786.065082096649	3640.2238851688
1	1192	87384.933772300256	1616.3627000602
1	1213	89633.977554275965	0
1	1244	91687.335313019494	1553.7084454331
1	1253	92296.081664673426	4090.9250808369
1	1278	93729.764937495132	1743.3036254619
1	1307	95591.352788549685	0
1	1358	98783.939044948365	0
1	1375	100170.644032267968	1085.6598099872
1	1386	100859.345705725532	2078.3688036796
1	1415	103202.205488506627	155.91291889938
1	1426	104192.50064397209	259.25379596526
1	1437	106262.957598994806	0
1	1486	111101.923156875472	0
1	1499	113356.353947145928	3171.8820475672
1	1548	116410.016469082163	395.63304198643
1	1569	117574.500088896103	2523.9436049648
1	1584	118760.929015124122	2677.7566148864
1	1639	123065.518787950787	937.64621418612
1	1654	124594.825467153745	582.25231678245
1	1683	126845.997892160488	2181.1142530278
1	1708	128748.231393524045	2080.5892657628
1	1745	131165.989594126123	3122.8800553143
1	1754	131954.288917552189	3688.3205296384
1	1761	133513.023556886279	4718.1120237914
1	1790	135464.432750903775	1064.9512353919
1	1835	138418.883648979494	455.10855627622
1	1844	139205.945167891714	3770.1553211609
1	1867	140526.556738719367	4586.3567716592
1	1916	143904.228860944042	285.2564724441
1	1947	147945.025946814465	2569.5892101787
1	1972	149170.148329213129	3460.2100207244
1	1991	149940.703597762493	2045.8639282735
1	2020	151843.785308293843	5852.4167545618
1	2047	154421.83140611062	2829.1882308711
1	2068	156399.444433614797	6414.6141636066
1	2091	157674.845231315359	6198.0319182176
1	2110	159126.371109945077	5790.0389266824
1	2127	160119.778696028001	2924.7271002484
1	2136	160583.960628404047	3654.3136399719
1	2149	161461.462845799649	3026.8760294882
1	2182	163455.790602417465	2000.0997640274
1	2215	166226.174554874254	2254.9004610181
1	2272	170531.374049113492	511.0998123851
1	2297	172463.481328397731	4128.2260742655
2	2310	172800	65045.508983007
2	2310	172800	70500.208421697
2	2310	172800	69431.303782729
2	2310	172800	86998.805595835
2	2310	172800	90996.569826648
2	2310	172800	72843.347919766
2	2310	172800	71567.877653349

