version 2
run Pipeline_7teachers-17-20181220-18:43:17-14876
attr configname Pipeline_7teachers
attr datetime 20181220-18:43:17
attr experiment Pipeline_7teachers
attr inifile omnetpp.ini
attr iterationvars "$0=\"lognormal\""
attr iterationvarsf lognormal-
attr measurement "$0=\"lognormal\""
attr network PipelinedExamSession
attr processid 14876
attr repetition 7
attr replication #7
attr resultdir results
attr runnumber 17
attr seedset 7
param **.teachersNumber 7
param **.answerTimeDistribution "\"lognormal\""
param **.minUniform 300
param **.maxUniform 1800
param **.scaleLognormal 6.8153
param **.shapeLognormal 0.5316

vector 0 PipelinedExamSession examinationTime:vector ETV
attr source examFinished
vector 1 PipelinedExamSession studentsWaitingTime:vector ETV
attr source waitingTime
vector 2 PipelinedExamSession teachersIdleTime:vector ETV
attr source idleTime
0	93	8662.761375208401	8662.7613752084
0	100	9863.569679860611	8924.0616686836
0	117	10814.480391488956	8269.7434786956
0	164	13837.332946247742	10431.887050654
0	189	15183.483414131709	10392.950263861
0	212	15917.177797699366	9841.0025670773
0	235	16954.844866181461	9334.5240685959
0	238	17476.921457163441	7182.673028884
0	269	19789.324190281911	8008.0581860938
0	294	21107.294637545034	7920.7940933972
0	339	23635.70386885284	8874.2797152915
0	356	24612.138655945592	8951.8002251934
0	373	24961.051977641701	7327.1776758283
0	410	27946.485312243515	8749.8285552788
0	429	28960.379199812189	8843.2626764969
0	456	30217.99790867842	8405.378834445
0	475	31098.495150988605	7678.0957334578
0	490	33176.616951141175	8311.9944696771
0	523	35257.898508699636	8304.7525731664
0	544	36482.310683007628	8031.7277568713
0	587	39854.838611165028	10412.355640494
0	622	42882.442478706759	12504.652735521
0	643	43782.375445375651	10713.234453315
0	662	44662.409626184292	9333.9343488827
0	673	45031.709696624883	8469.4895235588
0	722	48776.525605987041	10747.333108931
0	747	52070.525225758003	13078.89724591
0	772	55747.171363976287	13847.607724292
0	789	56585.905672005626	13703.463193299
0	810	57433.28420998727	13429.75222821
0	821	58332.465804896829	12824.425631527
0	856	60224.752093418507	13359.254686738
0	875	61922.190585713096	13145.664979726
0	890	63097.180048101008	11026.654822343
0	915	64157.565726858732	8410.3943628824
0	942	65485.903569293334	8401.1772796739
0	971	66747.001243393611	7408.7208735581
0	1000	68682.014669147321	7649.3098246222
0	1047	72427.326532662913	9275.2165154683
0	1072	75389.596819554851	11369.218814389
0	1087	76143.255166199513	11192.357979288
0	1096	76646.385166244165	10311.408253953
0	1125	83682.419021662334	15922.560417819
0	1144	84543.62090653642	15314.375253502
0	1181	86242.905384152332	15284.530311466
0	1198	87146.353177218602	14719.026644556
0	1227	88615.99835926459	13226.40153971
0	1248	90374.115225307478	8227.345244059
0	1281	92051.076823232481	7815.6698788838
0	1316	94216.502893585776	8501.6308771956
0	1325	95047.82439954052	8156.779994204
0	1348	96174.49126202029	8409.9107950096
0	1367	97795.540177812173	8381.1575510612
0	1402	101769.765142904247	11373.917169963
0	1405	102373.202167384655	9585.4899430833
0	1438	106060.169080688341	12065.902240371
0	1459	106910.27695807352	11171.109008515
0	1480	109054.45500368691	11804.203079985
0	1519	112630.744647043489	13389.32169911
0	1562	116182.058593675226	12799.735359315
0	1585	117161.149845696577	10992.122856961
0	1598	118047.698764373036	10558.615896643
0	1605	119614.713437857887	9604.531076078
0	1644	122691.900161322452	10999.242537229
0	1675	125176.961786051213	10878.726730675
0	1692	125800.579558806624	10261.991742183
0	1703	126676.669237362992	9827.0186879549
0	1730	129694.257990132992	9779.1545712562
0	1783	133874.216951121172	11564.211953655
0	1794	135441.986797547311	10550.408993038
0	1801	136354.345466389919	10430.075556552
0	1856	140113.711208582672	13259.847014464
0	1867	140973.564659292097	11092.163801811
0	1884	141449.89480227617	10103.867695967
0	1899	141913.780157351901	6168.1988732222
0	1972	148514.493533136477	10359.622717124
0	1987	149359.731205458819	9691.3969971136
0	2010	150176.065471909864	9000.6429951827
0	2035	151955.132089986498	10233.875414774
0	2050	152787.339394527349	9941.2128925691
0	2089	155305.693058516053	11459.490696897
0	2096	155933.385399000642	10002.479875566
0	2147	160276.673248538159	11762.179715402
0	2162	160811.661981418401	10760.86832126
0	2191	163200.644017625001	11659.802068498
0	2210	164104.434479522033	11155.715936366
0	2225	165146.616531249639	10041.971581185
0	2232	165617.033745612481	8785.5577117754
0	2287	168847.079366480169	10513.577294833
0	2316	171235.551444108982	10958.878195571
1	93	8662.761375208401	0
1	100	9863.569679860611	3083.1816444183
1	117	10814.480391488956	1892.3550059126
1	164	13837.332946247742	1260.1914530102
1	189	15183.483414131709	3249.8325823458
1	212	15917.177797699366	4570.120986716
1	235	16954.844866181461	4285.9905575122
1	238	17476.921457163441	1715.1725726778
1	269	19789.324190281911	1701.1975007388
1	294	21107.294637545034	916.4106010707
1	339	23635.70386885284	2311.1848642149
1	356	24612.138655945592	740.22991396581
1	373	24961.051977641701	3546.2687661569
1	410	27946.485312243515	110.87208999412
1	429	28960.379199812189	3422.7058493261
1	456	30217.99790867842	465.29812287011
1	475	31098.495150988605	3259.6776722503
1	490	33176.616951141175	456.86276939626
1	523	35257.898508699636	1603.6956372722
1	544	36482.310683007628	3231.9191424239
1	587	39854.838611165028	2373.5673336313
1	622	42882.442478706759	3324.4214526959
1	643	43782.375445375651	2243.4523588758
1	662	44662.409626184292	2979.116165312
1	673	45031.709696624883	3062.5083131374
1	722	48776.525605987041	1890.0735040366
1	747	52070.525225758003	3368.6316765815
1	772	55747.171363976287	3903.4808593702
1	789	56585.905672005626	8221.1959532264
1	810	57433.28420998727	6391.8730205427
1	821	58332.465804896829	7190.8163659661
1	856	60224.752093418507	6036.6653309134
1	875	61922.190585713096	5451.0427455064
1	890	63097.180048101008	4929.3813155573
1	915	64157.565726858732	2893.1775646156
1	942	65485.903569293334	0
1	971	66747.001243393611	2199.6011154099
1	1000	68682.014669147321	438.57963365589
1	1047	72427.326532662913	403.68187255093
1	1072	75389.596819554851	3743.5690950115
1	1087	76143.255166199513	4625.5706440478
1	1096	76646.385166244165	4510.9211786332
1	1125	83682.419021662334	2887.4568203312
1	1144	84543.62090653642	9453.3268533653
1	1181	86242.905384152332	8463.8620883156
1	1198	87146.353177218602	5033.010604382
1	1227	88615.99835926459	6560.0826027687
1	1248	90374.115225307478	2330.8137660633
1	1281	92051.076823232481	0
1	1316	94216.502893585776	2688.3788536473
1	1325	95047.82439954052	2224.4661130865
1	1348	96174.49126202029	2583.8749193735
1	1367	97795.540177812173	1298.4222496336
1	1402	101769.765142904247	1237.8352248873
1	1405	102373.202167384655	2910.9892743668
1	1438	106060.169080688341	3542.0937325487
1	1459	106910.27695807352	3944.4438982666
1	1480	109054.45500368691	3849.5540734113
1	1519	112630.744647043489	3113.2815113904
1	1562	116182.058593675226	2267.1736743858
1	1585	117161.149845696577	3875.2591522029
1	1598	118047.698764373036	1834.0514122107
1	1605	119614.713437857887	3937.0625783253
1	1644	122691.900161322452	1978.0365281012
1	1675	125176.961786051213	3120.1060882456
1	1692	125800.579558806624	3154.3007638732
1	1703	126676.669237362992	4885.689784098
1	1730	129694.257990132992	0
1	1783	133874.216951121172	1250.364442818
1	1794	135441.986797547311	3300.9996914428
1	1801	136354.345466389919	3506.208717693
1	1856	140113.711208582672	3106.5871624248
1	1867	140973.564659292097	4782.4525872732
1	1884	141449.89480227617	2568.9212403342
1	1899	141913.780157351901	0.884803853573
1	1972	148514.493533136477	0
1	1987	149359.731205458819	4011.9078571628
1	2010	150176.065471909864	3593.9702614893
1	2035	151955.132089986498	4032.3885544751
1	2050	152787.339394527349	4401.2384791935
1	2089	155305.693058516053	3673.0222388228
1	2096	155933.385399000642	3444.7241795121
1	2147	160276.673248538159	3234.0508249802
1	2162	160811.661981418401	3080.8198882504
1	2191	163200.644017625001	3004.5696822925
1	2210	164104.434479522033	5762.237648978
1	2225	165146.616531249639	5663.3000346118
1	2232	165617.033745612481	2311.6786114462
1	2287	168847.079366480169	579.16571101093
1	2316	171235.551444108982	1570.8628967189
2	2339	172800	70318.25379651
2	2339	172800	74271.40744405
2	2339	172800	83251.834261386
2	2339	172800	69154.158256544
2	2339	172800	74882.398635057
2	2339	172800	79208.047906367
2	2339	172800	72683.659421661

