version 2
run Pipeline_7teachers-18-20181220-18:43:17-9444
attr configname Pipeline_7teachers
attr datetime 20181220-18:43:17
attr experiment Pipeline_7teachers
attr inifile omnetpp.ini
attr iterationvars "$0=\"lognormal\""
attr iterationvarsf lognormal-
attr measurement "$0=\"lognormal\""
attr network PipelinedExamSession
attr processid 9444
attr repetition 8
attr replication #8
attr resultdir results
attr runnumber 18
attr seedset 8
param **.teachersNumber 7
param **.answerTimeDistribution "\"lognormal\""
param **.minUniform 300
param **.maxUniform 1800
param **.scaleLognormal 6.8153
param **.shapeLognormal 0.5316

vector 0 PipelinedExamSession examinationTime:vector ETV
attr source examFinished
vector 1 PipelinedExamSession studentsWaitingTime:vector ETV
attr source waitingTime
vector 2 PipelinedExamSession teachersIdleTime:vector ETV
attr source idleTime
0	73	8712.244191814435	8712.2441918144
0	94	9817.312818485451	7137.4639628578
0	141	13869.391868736656	10189.289308617
0	150	14690.485727524316	10152.954916747
0	167	15706.033569011647	9599.5414662674
0	198	17390.244678744383	9387.0115310835
0	225	18148.847232661044	9007.727931621
0	252	19586.141384485973	8941.0888337597
0	295	23058.947038705085	10398.609156672
0	302	24000.955914091979	9143.2994855855
0	315	24347.269185419514	8007.3722609243
0	348	26372.866168671123	8914.305576994
0	389	30958.955150454113	12624.530879365
0	400	31839.734429788702	12026.558637909
0	411	32206.455683625778	10333.536122638
0	440	33886.39119184266	9787.2740134719
0	485	36562.228745505818	11655.295787663
0	512	38309.464720667607	11384.635067461
0	531	39209.117477305024	8379.1146331065
0	550	40544.165762401433	7711.0850400286
0	567	41570.953897913084	8062.1852693056
0	594	42862.610553280678	7644.1069641572
0	645	46200.932571371727	9671.8872351529
0	664	48119.911996645351	10261.352238255
0	689	49577.312937542737	9772.5411875809
0	702	50228.356531359929	8977.7218072867
0	733	51757.168504425957	9679.9382171307
0	762	54347.376606575066	11232.295826518
0	769	54987.796834115223	9961.2479504779
0	822	60213.42506326666	12640.845746959
0	847	61914.92745314481	12843.551917447
0	872	64127.156715757639	13460.46465082
0	895	65896.100007300122	13858.923744519
0	912	66563.398884101494	12860.838948329
0	939	68555.006970268309	12514.845504784
0	962	69729.010905240773	12253.480062465
0	971	70897.215967897314	10683.790904631
0	1012	72618.366775964168	10703.439322819
0	1031	73296.93466099352	9169.7779452359
0	1072	79101.034657868101	12827.311105464
0	1089	79724.998201372041	11416.458029205
0	1112	80851.124590697213	11239.1150592
0	1135	82100.179828187137	10614.575441537
0	1150	83077.814597965843	10510.724683665
0	1189	84964.409779877939	11632.693417712
0	1206	85530.730963282849	10491.422584038
0	1239	88096.685728427737	8995.6510705596
0	1250	89298.687587012354	8754.440660912
0	1293	92553.470993883863	10480.913190589
0	1304	93297.59578531119	9844.3938776944
0	1335	96375.661231368825	11778.538044422
0	1364	98475.725157658842	12916.822013905
0	1381	99231.464779743767	11729.612915349
0	1402	100905.662742300972	11429.778644543
0	1421	102080.143677262212	10940.686969623
0	1430	102992.845222396511	9462.3245116796
0	1473	104572.624233069622	8679.4345199156
0	1514	108233.967964577275	10214.577123061
0	1535	109222.499811628063	9279.1051718564
0	1560	110855.168755051649	9354.688254206
0	1587	112649.644754284366	9604.9986087703
0	1610	113508.283257190905	8977.702586216
0	1623	114831.495331739831	8649.5146888479
0	1664	117378.489242216346	9770.2110980651
0	1677	117756.959799073875	8697.3695962684
0	1714	120747.694817732251	9926.4530644127
0	1739	121684.143185761475	9568.0372502049
0	1762	123435.689859119059	10171.210126511
0	1781	124290.075860080079	8968.9869556422
0	1810	125473.768439620472	8170.3159411626
0	1821	126312.097499779789	8083.81778818
0	1840	127939.499419902302	8059.4303089641
0	1893	131680.703347523967	10253.563405966
0	1914	133349.678806424895	10970.6979768
0	1947	135446.992372937606	11090.898347673
0	1970	136803.845746521741	11497.191409876
0	1991	138391.020255969127	11090.710605723
0	2014	139894.255807365543	11314.368884803
0	2025	140440.713855019701	10616.757549272
0	2042	141201.591762646896	8697.0719631515
0	2071	143393.73225978355	9600.6385304963
0	2100	144767.144439478005	9320.1520665404
0	2127	147707.49781262127	10412.091448858
0	2152	150091.576608461968	10634.555906956
0	2189	152315.030238980197	11665.981416067
0	2194	152553.154378794175	10221.456010748
0	2219	153557.620608554115	9754.0272578118
0	2236	155814.593739590161	9752.4593978051
0	2247	156492.033290441796	7957.0757273295
0	2290	159878.652986781144	9488.9268678594
0	2335	162586.054201345849	10545.623899598
0	2354	163363.407818619593	9828.4634537507
0	2387	165369.469188125674	8762.2601027668
0	2420	167890.933798463982	9780.5773227785
0	2441	168751.457578618468	9177.9638060678
0	2454	169404.950307237376	8509.2354499411
0	2475	170594.872871841114	8279.3395386903
1	73	8712.244191814435	0
1	94	9817.312818485451	1376.0037018927
1	141	13869.391868736656	295.50006574884
1	150	14690.485727524316	2448.2030858343
1	167	15706.033569011647	2738.1208612402
1	198	17390.244678744383	2896.4230091411
1	225	18148.847232661044	4717.2500234739
1	252	19586.141384485973	3460.8482893279
1	295	23058.947038705085	1935.0102923643
1	302	24000.955914091979	3421.3370001776
1	315	24347.269185419514	3451.6152600776
1	348	26372.866168671123	366.20825863428
1	389	30958.955150454113	1809.831560251
1	400	31839.734429788702	5766.1271971427
1	411	32206.455683625778	5402.6027513332
1	440	33886.39119184266	1698.7901549541
1	485	36562.228745505818	4325.0630407397
1	512	38309.464720667607	5000.7136133114
1	531	39209.117477305024	2600.9313640679
1	550	40544.165762401433	2152.8121950733
1	567	41570.953897913084	2119.4552090486
1	594	42862.610553280678	131.91369460254
1	645	46200.932571371727	2504.2448266573
1	664	48119.911996645351	2146.9481486019
1	689	49577.312937542737	2403.3700233029
1	702	50228.356531359929	1888.2324652866
1	733	51757.168504425957	2246.7595673371
1	762	54347.376606575066	2738.6321938475
1	769	54987.796834115223	4412.5050350351
1	822	60213.42506326666	2096.2505268454
1	847	61914.92745314481	5510.0061517698
1	872	64127.156715757639	6707.6909968234
1	895	65896.100007300122	6247.5850031188
1	912	66563.398884101494	8199.4263794994
1	939	68555.006970268309	4749.5369002491
1	962	69729.010905240773	3828.6667042183
1	971	70897.215967897314	5632.0573451848
1	1012	72618.366775964168	2105.8882504092
1	1031	73296.93466099352	3702.6171695226
1	1072	79101.034657868101	2767.3671257833
1	1089	79724.998201372041	4328.2987637567
1	1112	80851.124590697213	5605.3865846761
1	1135	82100.179828187137	4408.5432624953
1	1150	83077.814597965843	3023.9381165874
1	1189	84964.409779877939	3145.6034755648
1	1206	85530.730963282849	4839.6154218122
1	1239	88096.685728427737	1856.1831483551
1	1250	89298.687587012354	1827.3341714532
1	1293	92553.470993883863	2401.7903252913
1	1304	93297.59578531119	2533.1819487353
1	1335	96375.661231368825	1724.62303463
1	1364	98475.725157658842	3140.0613742508
1	1381	99231.464779743767	5081.6706470933
1	1402	100905.662742300972	1856.1938126191
1	1421	102080.143677262212	5532.2855147747
1	1430	102992.845222396511	2103.5144926378
1	1473	104572.624233069622	0
1	1514	108233.967964577275	2346.0125238646
1	1535	109222.499811628063	4084.9611852865
1	1560	110855.168755051649	1745.115702379
1	1587	112649.644754284366	2819.3709114846
1	1610	113508.283257190905	2284.2222555874
1	1623	114831.495331739831	505.2675460228
1	1664	117378.489242216346	1675.4536341386
1	1677	117756.959799073875	3111.9126138679
1	1714	120747.694817732251	2685.0976550347
1	1739	121684.143185761475	3024.2719326183
1	1762	123435.689859119059	3913.5395722836
1	1781	124290.075860080079	1553.5590206863
1	1810	125473.768439620472	1917.7019996132
1	1821	126312.097499779789	1816.0111988468
1	1840	127939.499419902302	1054.8702331192
1	1893	131680.703347523967	1374.1688900439
1	1914	133349.678806424895	2441.3146862976
1	1947	135446.992372937606	5187.43980299
1	1970	136803.845746521741	4510.2408066562
1	1991	138391.020255969127	5186.859744402
1	2014	139894.255807365543	4332.7198803485
1	2025	140440.713855019701	1930.5398277774
1	2042	141201.591762646896	2941.4918641926
1	2071	143393.73225978355	1476.2100712011
1	2100	144767.144439478005	1910.0713157976
1	2127	147707.49781262127	1707.4002024065
1	2152	150091.576608461968	3328.4419084089
1	2189	152315.030238980197	1121.8705151897
1	2194	152553.154378794175	1902.0839917993
1	2219	153557.620608554115	4185.4224755671
1	2236	155814.593739590161	1923.52179932
1	2247	156492.033290441796	608.05337449893
1	2290	159878.652986781144	774.32758845826
1	2335	162586.054201345849	702.98462786378
1	2354	163363.407818619593	1459.8418533464
1	2387	165369.469188125674	2949.5073729368
1	2420	167890.933798463982	1370.6683359019
1	2441	168751.457578618468	2618.4997232413
1	2454	169404.950307237376	3753.5025665128
1	2475	170594.872871841114	2525.5321017137
2	2504	172800	65328.996426686
2	2504	172800	65523.740270531
2	2504	172800	67995.186493209
2	2504	172800	77473.418795526
2	2504	172800	70879.484649772
2	2504	172800	65719.20048856
2	2504	172800	68889.243890514

