version 2
run Pipelined_3Teachers-12-20190105-10:57:20-17292
attr configname Pipelined_3Teachers
attr datetime 20190105-10:57:20
attr experiment Pipelined_3Teachers
attr inifile ../simulations/omnetpp.ini
attr iterationvars "$0=\"uniform\""
attr iterationvarsf uniform-
attr measurement "$0=\"uniform\""
attr network PipelinedExamSession
attr processid 17292
attr repetition 12
attr replication #12
attr resultdir results
attr runnumber 12
attr seedset 12
param **.teachersNumber 3
param **.answerTimeDistribution "\"uniform\""
param **.minUniform 300
param **.maxUniform 900
param **.scaleLognormal 6.2854
param **.shapeLognormal 0.4724

vector 0 PipelinedExamSession examinationTime:vector ETV
attr source examFinished
vector 1 PipelinedExamSession studentID:vector ETV
attr source student
0	3172	261106.646114308413	2332.4751606211
0	3185	261867.340621026259	2272.6806941908
0	3194	262642.243254510712	2168.0386330001
0	3201	263421.272074012112	2234.3944007065
0	3208	263772.234391327974	1904.8937703017
0	3219	264620.583576802191	1978.3403222915
0	3228	265458.758094208341	2033.7183598895
0	3235	266041.118549834963	1773.3682392631
0	3248	267243.44976637515	2498.5361484345
0	3253	267688.611749885629	2081.0072838329
0	3266	268892.438280209924	2548.8336717244
0	3271	269323.178589670013	2079.7288232949
0	3284	270049.371801037366	2056.1609073076
0	3291	270638.892611023063	1746.4543308131
0	3300	271400.591889861996	1947.1954508219
0	3311	272247.645243862669	2198.2734428253
0	3316	272605.38386763076	1907.8851370141
0	3327	273601.458724541615	2053.5788706969
0	3334	273985.589875001486	1737.9446311388
0	3345	275134.446786856305	2017.1503715683
0	3354	275795.172620611291	2009.6563037485
0	3361	276369.561891770016	1748.3132324181
0	3370	277081.367822410564	1855.5858196691
0	3381	277807.867034431573	1780.9934189077
0	3384	278243.941359641057	1529.0694897529
0	3399	279793.715776177149	2392.1669058502
0	3410	280547.701963875469	2289.6595115773
0	3417	281078.052121214595	1938.6250758078
0	3428	281946.71482024717	2072.1144758631
0	3437	282805.941616231602	2258.2396523561
0	3446	283392.540170112651	2248.5722229816
0	3453	284007.426131749552	2060.7113115024
0	3460	284515.873379772555	1709.931763541
0	3471	285511.32856411862	2118.788394006
0	3480	286341.876539820831	2284.4646566547
0	3489	287222.88225679661	2282.4638913386
0	3500	288061.091281799626	2348.0307119898
0	3507	288778.486604383242	2418.1514163036
0	3514	289275.03508776429	2027.2853274364
0	3525	289824.225751776275	1763.1344699766
0	3534	290695.406953711089	1898.2738828752
0	3541	291209.288382204276	1844.9983404949
0	3552	292158.020006725591	2198.1619941071
0	3563	293137.967748614055	2293.7014976051
0	3572	293804.803057573763	2185.4722134769
0	3581	294582.385426433784	2145.5855739769
0	3588	295323.030353710082	2185.062605096
0	3595	295757.326414436129	1952.5233568624
0	3606	296492.071643751142	1909.6862173174
0	3615	297243.331919610528	1892.3952856567
0	3626	298420.963515853537	2386.9941496756
0	3635	299239.071562606869	2358.6354905739
0	3644	299909.858085773913	2283.4455732722
0	3651	300493.003258109121	2072.0397422556
0	3658	300883.461520168959	1644.3899575621
0	3669	302083.772382745547	2173.9142969716
0	3680	302961.805278668208	2345.8328668959
0	3685	303289.525822363822	1794.5332181174
0	3694	304024.634133372484	1658.2384633832
0	3707	305399.770473456038	2437.9651947878
0	3712	305892.833695141626	2215.3305896558
0	3723	306582.752947602449	2072.90721545
0	3732	307289.327843673554	1889.5573702175
0	3741	308250.525961909471	2104.0554577019
0	3748	308681.001153728021	2069.4389834069
0	3757	309247.638162598041	1742.6579845604
0	3770	310127.978662680863	1780.444664089
0	3777	310607.30655575174	1802.7304074727
0	3786	311158.869078476011	1758.6153833661
0	3797	312233.900537760958	2105.9218750801
0	3806	312894.853878999159	2167.9613282438
0	3813	313601.018651481748	2164.8675672244
0	3820	314147.996228467703	1914.0956907067
0	3829	315012.602882785753	2117.7490037866
0	3838	315915.813583089068	2125.3543416504
0	3847	316533.767039096013	1915.756994253
0	3858	317465.790454577685	2081.9387326017
0	3865	317985.28729272078	1859.0987653937
0	3878	319014.862726070017	2118.0389553308
0	3883	319594.55898818563	2063.866495667
0	3896	320597.645242558823	2212.3365232721
0	3903	321139.885220071332	2125.0224940013
0	3910	321952.036829106541	2182.3736459948
0	3921	323005.255553405764	2407.6103108469
0	3930	323546.264689089762	2142.4507588148
0	3937	324059.591350285368	1839.2357015982
0	3948	325002.280753338742	1970.3603255097
0	3957	325826.070801727506	2255.3406363353
0	3964	326285.356821399214	1824.6044377796
0	3975	326968.705911235916	1662.0069909375
0	3984	327813.512536464291	1873.1782465708
0	3993	328373.548241145941	2019.8919665068
0	3996	328736.704683769526	1590.4361642897
0	4009	329770.92832750644	1908.440732304
0	4018	330693.02671258341	1943.3776555583
0	4029	331692.502362420815	2389.683682099
0	4038	332311.041036481071	2159.6824706532
0	4047	333313.762555830214	2453.8338698912
0	4056	334082.966442592476	2376.8457063474
0	4063	334413.216419052367	1911.5458572283
0	4074	335613.486096868325	2253.8682358805
0	4085	336691.380562679876	2455.1549535245
0	4094	337496.493727667291	2392.0340141281
0	4101	337920.641164714504	2097.2560621798
0	4104	338223.207031516392	1531.8264688365
0	4117	339359.078662237187	1862.5849345699
0	4130	340584.970453474705	2191.2059160881
0	4137	341178.73805444691	2164.4581108354
0	4144	341696.279507875476	1983.8849673048
0	4155	342342.607173649629	1757.6367201749
0	4162	342922.646148595993	1591.299272608
0	4171	343739.862464927171	1989.9997770321
0	4180	344527.362871309777	1982.5682919938
0	4189	345369.95027745146	1962.3378796969
0	4198	346113.315161503886	1969.1871528514
0	4211	346873.406492359971	2008.630590979
0	4216	347275.561809679528	1666.8177118991
0	4225	347935.420187842136	1727.9316248372
0	4234	348621.004975447466	1747.5984830875
0	4243	349558.62370007675	2080.3257029504
0	4252	350128.975854953787	1796.3711543474
0	4265	351424.197371397203	2293.332110066
0	4274	352266.545285750216	2264.7631343454
0	4283	353158.609774941614	2460.2718004491
0	4290	353529.386632377317	2105.1892609801
0	4299	354265.296256402543	1998.7509706523
0	4310	355134.634088538623	1976.024313597
0	4317	355575.736959977111	2029.6649484895
0	4324	355921.024777181482	1644.5315288845
0	4335	356907.115110475606	1772.481021937
0	4344	357697.642175853288	2093.7182500027
0	4351	358024.365845555475	1671.7048978899
0	4364	359631.718379957638	2566.7813678272
0	4369	360123.235082533247	2196.6550308745
0	4382	361116.460460471026	2305.1459291484
0	4389	361823.452936392314	2191.7345564347
0	4396	362405.218499433286	2077.6926135644
0	4405	363012.547400174698	1896.0869397037
0	4414	364180.382486712224	2234.7642369568
0	4425	364806.296518212221	2118.6558587942
0	4432	365215.731401508711	1757.5342821423
0	4441	366247.150669852309	1910.4203348514
0	4450	366709.592443238981	1617.2573269811
0	4459	367876.303213136308	2207.117197942
0	4468	368714.338372461535	2220.4451682977
0	4479	369490.4500679579	2137.1713455766
0	4488	370079.453287320249	1834.4544250052
0	4497	370763.157803798132	1786.2322703004
0	4504	371473.658982804082	1847.8511183057
0	4513	372227.680200431533	1993.5131289996
0	4522	372872.777607059143	1863.412870327
0	4531	373831.689467886499	1974.9190622941
0	4540	374906.34988211099	2171.265427256
0	4549	375440.736148087345	1868.6208074447
0	4558	376143.620822439008	1814.5459332503
0	4567	377006.833930313624	1820.2326884028
0	4578	378194.674706831611	2210.1603976451
0	4585	378775.54685650397	1920.7192695234
0	4594	379535.414438741318	1792.8956711199
0	4603	380269.831237988583	1638.1833365187
0	4612	380950.140600325577	1797.5401600823
0	4621	381770.432152412869	2128.8475289941
0	4634	382760.377784119957	2220.1657827012
0	4643	383354.768340429329	2018.1697646622
0	4650	383743.951124371999	1793.0868866388
0	4661	384631.912478478664	1871.5346943587
0	4670	385475.159848853984	2120.3915084247
0	4677	386184.579341858664	2393.1888550054
0	4688	387071.713622007558	2439.8011435289
0	4695	387840.52328118127	2365.3634323273
0	4704	388633.492344198787	2412.2404293157
0	4713	389428.975353157187	2357.2617311496
0	4720	389974.926823563913	2090.9070591442
0	4725	390305.896655749569	1556.8882869557
0	4738	391508.074428560252	2016.3577677682
0	4747	392196.474090311715	1863.1635299418
0	4756	392901.237206021363	1887.4073469546
0	4767	393699.530071159864	1818.8205678016
0	4776	394350.273491302544	1867.0714646112
0	4787	395228.405764326492	1998.0416022241
0	4796	396011.329114297444	2151.2079619803
0	4803	396663.370672473723	1998.6078113783
0	4814	397637.13099444289	2408.7252301164
0	4821	398446.499731577973	2435.1706172805
0	4832	399158.531207358505	2327.1083552856
0	4837	399536.4566189703	1899.3256245274
0	4846	400267.260279413353	1768.936537765
0	4855	400995.632805861573	1837.1015985031
0	4868	401944.17095440444	2307.443117816
0	4877	402840.668044472155	2321.8883204274
0	4884	403420.671716379044	2186.3984178286
0	4891	403943.725821096492	1999.5548666921
0	4904	405514.506411692169	2673.83836722
0	4909	405842.03553213742	2109.1845167801
0	4918	406980.653926078272	2349.859268032
0	4929	407966.549690114376	2452.0432784222
0	4938	408839.263204671484	2458.0892182421
0	4947	409571.845760615584	2344.9082478415
0	4958	410427.567051071715	2301.0423318017
0	4967	411226.520301634487	2243.9041993115
0	4972	411545.241012191441	1852.9288600199
0	4981	412092.947556171608	1665.3805050999
0	4992	413517.41807316434	2290.8977715299
0	5003	414141.046993341338	2334.4499694183
0	5010	414785.299596888986	2133.4232423455
0	5017	415215.832427283791	1696.3678719476
0	5026	416464.524640515488	2323.4776471741
0	5037	417248.605419555721	2267.5763979089
0	5044	418037.401053076652	2223.1522128917
0	5055	418793.911965005143	2241.2044627592
0	5062	419216.805932717441	1956.732616201
0	5071	420237.759917182891	2081.1691854615
0	5080	421221.12800292675	2311.7027060129
0	5091	421978.105852101041	2190.7064284198
0	5102	422834.655731124846	2286.889962852
0	5109	423448.874279111666	2013.0016534589
0	5118	423827.954689599616	1612.5704694539
0	5127	424527.274817554323	1692.6190864295
0	5134	424943.059715721799	1457.369729178
0	5145	426048.074528574987	2069.5325296372
0	5152	426513.907123915895	1810.8695791103
0	5163	427414.246148709252	1869.022667734
0	5174	428504.841693397655	2379.2545863893
0	5179	428854.16682804939	1862.9466026556
0	5190	429675.492707127749	2008.4751251154
0	5201	430727.110807271718	2222.2691138741
0	5210	431576.447883155241	2508.5824518465
0	5217	432213.062348077118	2332.8095534351
0	5224	432779.100190429061	2051.9893831573
0	5235	433768.93770215106	2192.4898189958
0	5242	434166.998727154031	1807.0599528495
0	5255	435302.240375289738	2266.7614067439
0	5264	435945.336829684719	2050.5061414093
0	5269	436414.529089629694	1691.5534746833
0	5280	437368.835093546703	2066.594718257
0	5287	437669.898261688694	1724.561432004
0	5296	438811.075425893112	2193.7589852605
0	5305	439486.772309057459	2046.147175692
0	5318	440854.885170562237	2534.5570424572
0	5327	441419.355446705639	2217.3669942655
0	5332	441916.598904132887	1867.8837878164
0	5341	442659.292688174218	1804.407517612
0	5350	443147.607794310942	1728.2523476053
0	5363	444351.254708832174	2101.3634484261
0	5370	444769.626178359657	1690.5142015312
0	5377	445638.675635866865	2119.3707961589
0	5386	446139.414718793749	1788.1600099616
0	5397	447128.906599385707	2104.8467537854
0	5408	448005.011297715872	2179.4814897235
0	5417	448865.731373056814	2221.3971250691
0	5422	449379.168730974242	2142.1204746701
0	5431	449797.1002128907	1792.0889151748
0	5440	450840.130748553246	1974.3993754964
0	5451	451926.836867630526	2164.2393199727
0	5458	452419.120426476046	1827.9742840212
0	5471	453484.562998171941	2187.4959760811
0	5480	454263.711580820427	2229.4318950735
0	5489	455064.924273826227	2195.7183131017
0	5494	455444.587731733963	1960.024733562
0	5505	456568.183612497568	2304.4720316771
0	5516	457451.735677197621	2386.8114033714
0	5523	458139.995682891504	2343.5816634446
0	5532	459021.58944457774	2411.5512030199
0	5543	459737.987115606711	2286.2514384091
0	5552	460529.611318605066	2187.7095795237
0	5561	461385.305369831667	2347.5006584544
0	5568	462097.708387021021	2359.7212714143
0	5575	462539.91886801091	2010.3075494058
0	5584	463362.788889650302	1977.4835198186
0	5597	464402.132229879544	2173.350509908
0	5604	464877.073773695202	2004.7310389113
0	5615	466117.524801101581	2559.6534311771
0	5620	466712.857982888863	2310.7257530093
0	5631	467590.186511166439	2347.4363086279
0	5638	468189.352999627635	2071.8281985261
0	5649	468790.133394068152	1976.6678117216
0	5656	469166.382763395131	1560.9101568349
0	5665	469647.07084363331	1366.0881136078
0	5674	470605.290401866706	1762.2947408818
0	5683	471332.620854489551	1815.6046999153
0	5692	471801.784149929927	1428.1389992684
0	5703	472695.132831623823	1894.3963661324
0	5710	473003.673681942791	1550.1528896391
0	5719	473990.644487086729	1713.6555695906
0	5728	474859.527419088454	1877.3472167552
0	5737	475394.902390614197	1756.0791375116
0	5750	476466.058752173603	2039.6730512381
0	5755	476859.387398650915	1615.2293102816
0	5768	477736.081451224208	2098.3747129329
0	5773	478218.450465006799	1752.3917128332
0	5786	479416.822672169701	2338.1936558057
0	5793	480150.820812117354	2414.7393608931
0	5800	480580.34707778138	1961.2072092947
0	5813	481625.907473964662	2209.084801795
0	5822	482382.180142588959	2226.4458961319
0	5827	482696.212987555237	1787.8629522398
0	5836	483555.1957122982	1929.2882383335
0	5849	484925.952271744655	2543.7721291557
0	5858	485764.892491372348	2544.66057932
0	5863	486172.440805379347	2126.5799713321
0	5874	487338.541060080798	2412.5887883361
0	5883	487908.228358626412	2143.3358672541
0	5894	488650.72601465513	2101.053983951
0	5899	489188.11534834099	1756.0848031193
0	5908	489779.571317089768	1775.9535142221
0	5919	490689.503338700207	2038.7773240451
0	5930	491529.925859905826	2058.0109602772
0	5939	492423.827614076482	2136.7648308165
0	5946	492838.867482310207	2122.4771737587
0	5955	493646.856282837736	2116.9304229319
0	5962	494252.883675461682	1829.0560613852
0	5971	494965.562982810708	1752.169287717
0	5980	495459.56977838655	1653.147858521
0	5989	496598.14861505297	2001.778988773
0	5998	497107.84965092321	1812.5047673006
0	6007	498209.513391880366	2093.2075736113
0	6018	498925.402871891903	2051.5007740818
0	6025	499300.738084036904	1711.687035067
0	6034	499761.812592018443	1485.048697656
0	6043	500731.780746392952	1732.9865589738
0	6054	502071.901694079907	2377.8639705386
0	6065	502907.99322025855	2478.5005033482
0	6070	503536.70680923392	2301.3708219398
0	6079	503973.114460939588	1885.0207486656
0	6088	504968.41822606516	2060.4250058066
0	6097	505731.104379985528	2106.4643842634
0	6110	506689.54002410178	2369.0715225879
0	6117	507117.71693648775	2006.0560959857
0	6128	508229.513195157097	2231.6127387341
0	6135	508670.41323180315	1980.8732077014
0	6142	509370.021567447157	1992.8238929249
0	6151	510000.334325619089	1770.821130462
0	6164	511194.837021734612	2275.4042340908
0	6173	512086.35643702005	2274.6663117316
0	6182	512800.337694212841	2236.8908034638
0	6189	513548.499147081794	2353.6621253472
0	6196	514004.685384454252	1918.3289474342
0	6207	514689.518693368928	1889.1809991561
0	6218	515433.883543079765	1759.5004533883
0	6223	515837.206418160395	1717.8635354619
0	6232	516179.91725010802	1427.8823576868
0	6245	517262.019946798729	1828.136403719
0	6254	518098.553090449469	2092.0895918738
0	6263	518739.643219253095	2356.0994316358
0	6272	519418.459303909959	2156.4393571112
0	6279	520107.551577407913	2008.9984869584
0	6286	520565.357037819968	1825.7138185669
0	6297	521781.984511250677	2363.5252073407
0	6308	522408.833263255702	2116.7237307876
0	6315	523113.568378938408	2050.3187854774
0	6324	523651.274410821544	1858.1498850603
0	6331	524255.790004413622	1846.9567411579
0	6344	525350.001766718971	2156.5422653686
0	6353	526240.445273229899	2338.0091656465
0	6360	526801.841421006294	2084.4481074717
0	6369	527588.260388374375	2238.2586216554
0	6378	528382.476403657393	2142.0311304275
0	6387	528919.710461469413	2102.925230423
0	6396	529668.469657050492	2021.7176447622
0	6405	530377.187303546862	1905.4654127453
0	6414	531318.108398001688	2145.024514664
0	6423	532352.778254589113	2471.6713421512
0	6430	532802.444029413211	2089.7158394102
0	6443	534008.077179919976	2491.091935616
0	6452	534658.21478012954	2243.9844906796
0	6459	535487.281949026558	2277.4614344817
0	6468	536075.481522409293	2067.4043424893
0	6475	536870.116130774888	2211.9013506453
0	6486	537518.836093973416	1983.9605854824
0	6493	538526.292567886461	2388.5725218337
0	6502	539267.470654891852	2232.4381807353
0	6511	539839.550431352157	1905.559976818
0	6520	540596.695617819253	1774.1404989269
0	6529	541318.706509843517	1792.400295753
0	6538	541785.653624357704	1469.528362155
0	6551	542826.858203904752	1987.8445828333
0	6558	543477.716677822221	2090.7327556517
0	6565	543857.477384805728	1658.9085384272
0	6574	544508.739771461163	1681.8815675564
0	6583	545417.043117620099	1789.6332792006
0	6592	545979.963247105527	1566.2378379609
0	6601	547085.696292808328	1872.6354815997
0	6612	547813.72946393681	2002.7597053908
0	6619	548188.022773107563	1550.8026349358
0	6632	549678.790208883633	2449.0488380659
0	6637	550112.221676996027	2113.3480803575
0	6650	551299.684127373671	2437.4954902567
0	6659	551983.46099127089	2304.6707823873
0	6664	552415.645026555335	1963.1836283952
0	6677	553438.355701882442	2138.6715745088
0	6682	553764.529248839294	1781.0682575684
0	6693	554730.065212771346	1954.3602721766
0	6702	555288.375839078849	1850.0201371964
0	6713	556195.796892698905	2018.6013927218
0	6722	557057.210991857624	2319.9873328675
0	6727	557461.88748953869	2103.921999922
0	6736	558446.786663448489	2250.9897707496
0	6745	558974.276921432517	1917.0659295749
0	6754	559965.691085206395	2082.1931531187
0	6763	560626.123194862208	1921.3772127405
0	6772	561566.285782819665	2163.1693050731
0	6783	562457.437123870528	2187.931623403
0	6786	562801.253055688045	1680.0979638007
0	6799	563808.767701964877	1818.5171434656
0	6812	565078.65700540138	2256.3859433401
0	6817	565810.40186500182	2387.5401796773
0	6826	566436.466274131141	2127.0718112122
0	6839	567114.223163109325	2035.5661577079
0	6844	567627.989726420544	1678.8051644806
0	6853	568172.305074054801	1567.1732519288
0	6864	569324.74686666397	2210.5237035546
0	6871	570222.560472507082	2292.3802815378
0	6880	570874.71527690073	2061.5903370548
0	6893	572195.807329751603	2516.9385530055
0	6900	573017.888761265255	2445.3650871757
0	6911	573844.237235561065	2427.5929049123
0	6916	574530.444529233552	2334.6371994819
0	6929	575390.682126721419	2363.2659370545
0	6934	576198.689374141447	2354.4521385804
0	6943	576588.270626356878	1882.8923704103
0	6952	577118.39165389543	1727.709527174
0	6961	577662.892362987675	1376.9144669641
0	6970	578609.358817990922	1811.1245612148
0	6979	579206.735176267156	1910.5518723372
0	6990	580064.007803052717	1920.5034448765
0	6997	580372.688553901442	1609.3501872383
0	7006	581363.673820998574	2010.6258060783
0	7015	581767.990822624469	1636.5627690218
0	7026	582818.44895803375	2071.7708468903
0	7033	583627.579043526257	2170.4250746872
0	7046	584636.582593107651	2284.8057192285
0	7055	585432.027357677053	2234.0007707477
0	7062	585964.323914051111	1935.88244766
0	7069	586568.08112841105	1931.4985353034
0	7080	587644.628587598036	2212.601229921
0	7087	588089.57208199432	1858.0888931639
0	7096	589252.448283182511	2219.7657014709
0	7109	590024.322852725218	2374.6001792606
0	7118	590841.901506017949	2415.5933874194
0	7127	591699.977182829808	2429.2047001887
0	7132	592331.116428226288	2306.7935755011
0	7143	593418.015224626344	2576.1137186084
0	7152	593925.597815075945	2225.6206322461
0	7159	594407.370243128445	1814.196216641
0	7172	595488.852852070759	2057.4564507231
0	7181	596128.715958958547	2080.020672502
0	7190	596807.555744005423	1904.2253797408
0	7199	597473.871624609511	1985.0187725388
0	7204	597970.942529104706	1842.2265701462
0	7215	598640.760548086893	1833.2048040815
0	7226	599457.002297742348	1983.1306731328
0	7231	600029.943155916463	1958.3582227584
0	7242	600797.212683688905	2141.5419276338
0	7253	601513.661521626692	2056.6592238843
0	7258	601914.525534119513	1834.4007950742
0	7271	603165.643746312763	2261.1762498971
0	7280	603827.894882625024	2314.2333609983
0	7287	604520.485485205482	2252.9250559397
1	3172	261106.646114308413	351
1	3185	261867.340621026259	352
1	3194	262642.243254510712	353
1	3201	263421.272074012112	354
1	3208	263772.234391327974	355
1	3219	264620.583576802191	356
1	3228	265458.758094208341	357
1	3235	266041.118549834963	358
1	3248	267243.44976637515	359
1	3253	267688.611749885629	360
1	3266	268892.438280209924	361
1	3271	269323.178589670013	362
1	3284	270049.371801037366	363
1	3291	270638.892611023063	364
1	3300	271400.591889861996	365
1	3311	272247.645243862669	366
1	3316	272605.38386763076	367
1	3327	273601.458724541615	368
1	3334	273985.589875001486	369
1	3345	275134.446786856305	370
1	3354	275795.172620611291	371
1	3361	276369.561891770016	372
1	3370	277081.367822410564	373
1	3381	277807.867034431573	374
1	3384	278243.941359641057	375
1	3399	279793.715776177149	376
1	3410	280547.701963875469	377
1	3417	281078.052121214595	378
1	3428	281946.71482024717	379
1	3437	282805.941616231602	380
1	3446	283392.540170112651	381
1	3453	284007.426131749552	382
1	3460	284515.873379772555	383
1	3471	285511.32856411862	384
1	3480	286341.876539820831	385
1	3489	287222.88225679661	386
1	3500	288061.091281799626	387
1	3507	288778.486604383242	388
1	3514	289275.03508776429	389
1	3525	289824.225751776275	390
1	3534	290695.406953711089	391
1	3541	291209.288382204276	392
1	3552	292158.020006725591	393
1	3563	293137.967748614055	394
1	3572	293804.803057573763	395
1	3581	294582.385426433784	396
1	3588	295323.030353710082	397
1	3595	295757.326414436129	398
1	3606	296492.071643751142	399
1	3615	297243.331919610528	400
1	3626	298420.963515853537	401
1	3635	299239.071562606869	402
1	3644	299909.858085773913	403
1	3651	300493.003258109121	404
1	3658	300883.461520168959	405
1	3669	302083.772382745547	406
1	3680	302961.805278668208	407
1	3685	303289.525822363822	408
1	3694	304024.634133372484	409
1	3707	305399.770473456038	410
1	3712	305892.833695141626	411
1	3723	306582.752947602449	412
1	3732	307289.327843673554	413
1	3741	308250.525961909471	414
1	3748	308681.001153728021	415
1	3757	309247.638162598041	416
1	3770	310127.978662680863	417
1	3777	310607.30655575174	418
1	3786	311158.869078476011	419
1	3797	312233.900537760958	420
1	3806	312894.853878999159	421
1	3813	313601.018651481748	422
1	3820	314147.996228467703	423
1	3829	315012.602882785753	424
1	3838	315915.813583089068	425
1	3847	316533.767039096013	426
1	3858	317465.790454577685	427
1	3865	317985.28729272078	428
1	3878	319014.862726070017	429
1	3883	319594.55898818563	430
1	3896	320597.645242558823	431
1	3903	321139.885220071332	432
1	3910	321952.036829106541	433
1	3921	323005.255553405764	434
1	3930	323546.264689089762	435
1	3937	324059.591350285368	436
1	3948	325002.280753338742	437
1	3957	325826.070801727506	438
1	3964	326285.356821399214	439
1	3975	326968.705911235916	440
1	3984	327813.512536464291	441
1	3993	328373.548241145941	442
1	3996	328736.704683769526	443
1	4009	329770.92832750644	444
1	4018	330693.02671258341	445
1	4029	331692.502362420815	446
1	4038	332311.041036481071	447
1	4047	333313.762555830214	448
1	4056	334082.966442592476	449
1	4063	334413.216419052367	450
1	4074	335613.486096868325	451
1	4085	336691.380562679876	452
1	4094	337496.493727667291	453
1	4101	337920.641164714504	454
1	4104	338223.207031516392	455
1	4117	339359.078662237187	456
1	4130	340584.970453474705	457
1	4137	341178.73805444691	458
1	4144	341696.279507875476	459
1	4155	342342.607173649629	460
1	4162	342922.646148595993	461
1	4171	343739.862464927171	462
1	4180	344527.362871309777	463
1	4189	345369.95027745146	464
1	4198	346113.315161503886	465
1	4211	346873.406492359971	466
1	4216	347275.561809679528	467
1	4225	347935.420187842136	468
1	4234	348621.004975447466	469
1	4243	349558.62370007675	470
1	4252	350128.975854953787	471
1	4265	351424.197371397203	472
1	4274	352266.545285750216	473
1	4283	353158.609774941614	474
1	4290	353529.386632377317	475
1	4299	354265.296256402543	476
1	4310	355134.634088538623	477
1	4317	355575.736959977111	478
1	4324	355921.024777181482	479
1	4335	356907.115110475606	480
1	4344	357697.642175853288	481
1	4351	358024.365845555475	482
1	4364	359631.718379957638	483
1	4369	360123.235082533247	484
1	4382	361116.460460471026	485
1	4389	361823.452936392314	486
1	4396	362405.218499433286	487
1	4405	363012.547400174698	488
1	4414	364180.382486712224	489
1	4425	364806.296518212221	490
1	4432	365215.731401508711	491
1	4441	366247.150669852309	492
1	4450	366709.592443238981	493
1	4459	367876.303213136308	494
1	4468	368714.338372461535	495
1	4479	369490.4500679579	496
1	4488	370079.453287320249	497
1	4497	370763.157803798132	498
1	4504	371473.658982804082	499
1	4513	372227.680200431533	500
1	4522	372872.777607059143	501
1	4531	373831.689467886499	502
1	4540	374906.34988211099	503
1	4549	375440.736148087345	504
1	4558	376143.620822439008	505
1	4567	377006.833930313624	506
1	4578	378194.674706831611	507
1	4585	378775.54685650397	508
1	4594	379535.414438741318	509
1	4603	380269.831237988583	510
1	4612	380950.140600325577	511
1	4621	381770.432152412869	512
1	4634	382760.377784119957	513
1	4643	383354.768340429329	514
1	4650	383743.951124371999	515
1	4661	384631.912478478664	516
1	4670	385475.159848853984	517
1	4677	386184.579341858664	518
1	4688	387071.713622007558	519
1	4695	387840.52328118127	520
1	4704	388633.492344198787	521
1	4713	389428.975353157187	522
1	4720	389974.926823563913	523
1	4725	390305.896655749569	524
1	4738	391508.074428560252	525
1	4747	392196.474090311715	526
1	4756	392901.237206021363	527
1	4767	393699.530071159864	528
1	4776	394350.273491302544	529
1	4787	395228.405764326492	530
1	4796	396011.329114297444	531
1	4803	396663.370672473723	532
1	4814	397637.13099444289	533
1	4821	398446.499731577973	534
1	4832	399158.531207358505	535
1	4837	399536.4566189703	536
1	4846	400267.260279413353	537
1	4855	400995.632805861573	538
1	4868	401944.17095440444	539
1	4877	402840.668044472155	540
1	4884	403420.671716379044	541
1	4891	403943.725821096492	542
1	4904	405514.506411692169	543
1	4909	405842.03553213742	544
1	4918	406980.653926078272	545
1	4929	407966.549690114376	546
1	4938	408839.263204671484	547
1	4947	409571.845760615584	548
1	4958	410427.567051071715	549
1	4967	411226.520301634487	550
1	4972	411545.241012191441	551
1	4981	412092.947556171608	552
1	4992	413517.41807316434	553
1	5003	414141.046993341338	554
1	5010	414785.299596888986	555
1	5017	415215.832427283791	556
1	5026	416464.524640515488	557
1	5037	417248.605419555721	558
1	5044	418037.401053076652	559
1	5055	418793.911965005143	560
1	5062	419216.805932717441	561
1	5071	420237.759917182891	562
1	5080	421221.12800292675	563
1	5091	421978.105852101041	564
1	5102	422834.655731124846	565
1	5109	423448.874279111666	566
1	5118	423827.954689599616	567
1	5127	424527.274817554323	568
1	5134	424943.059715721799	569
1	5145	426048.074528574987	570
1	5152	426513.907123915895	571
1	5163	427414.246148709252	572
1	5174	428504.841693397655	573
1	5179	428854.16682804939	574
1	5190	429675.492707127749	575
1	5201	430727.110807271718	576
1	5210	431576.447883155241	577
1	5217	432213.062348077118	578
1	5224	432779.100190429061	579
1	5235	433768.93770215106	580
1	5242	434166.998727154031	581
1	5255	435302.240375289738	582
1	5264	435945.336829684719	583
1	5269	436414.529089629694	584
1	5280	437368.835093546703	585
1	5287	437669.898261688694	586
1	5296	438811.075425893112	587
1	5305	439486.772309057459	588
1	5318	440854.885170562237	589
1	5327	441419.355446705639	590
1	5332	441916.598904132887	591
1	5341	442659.292688174218	592
1	5350	443147.607794310942	593
1	5363	444351.254708832174	594
1	5370	444769.626178359657	595
1	5377	445638.675635866865	596
1	5386	446139.414718793749	597
1	5397	447128.906599385707	598
1	5408	448005.011297715872	599
1	5417	448865.731373056814	600
1	5422	449379.168730974242	601
1	5431	449797.1002128907	602
1	5440	450840.130748553246	603
1	5451	451926.836867630526	604
1	5458	452419.120426476046	605
1	5471	453484.562998171941	606
1	5480	454263.711580820427	607
1	5489	455064.924273826227	608
1	5494	455444.587731733963	609
1	5505	456568.183612497568	610
1	5516	457451.735677197621	611
1	5523	458139.995682891504	612
1	5532	459021.58944457774	613
1	5543	459737.987115606711	614
1	5552	460529.611318605066	615
1	5561	461385.305369831667	616
1	5568	462097.708387021021	617
1	5575	462539.91886801091	618
1	5584	463362.788889650302	619
1	5597	464402.132229879544	620
1	5604	464877.073773695202	621
1	5615	466117.524801101581	622
1	5620	466712.857982888863	623
1	5631	467590.186511166439	624
1	5638	468189.352999627635	625
1	5649	468790.133394068152	626
1	5656	469166.382763395131	627
1	5665	469647.07084363331	628
1	5674	470605.290401866706	629
1	5683	471332.620854489551	630
1	5692	471801.784149929927	631
1	5703	472695.132831623823	632
1	5710	473003.673681942791	633
1	5719	473990.644487086729	634
1	5728	474859.527419088454	635
1	5737	475394.902390614197	636
1	5750	476466.058752173603	637
1	5755	476859.387398650915	638
1	5768	477736.081451224208	639
1	5773	478218.450465006799	640
1	5786	479416.822672169701	641
1	5793	480150.820812117354	642
1	5800	480580.34707778138	643
1	5813	481625.907473964662	644
1	5822	482382.180142588959	645
1	5827	482696.212987555237	646
1	5836	483555.1957122982	647
1	5849	484925.952271744655	648
1	5858	485764.892491372348	649
1	5863	486172.440805379347	650
1	5874	487338.541060080798	651
1	5883	487908.228358626412	652
1	5894	488650.72601465513	653
1	5899	489188.11534834099	654
1	5908	489779.571317089768	655
1	5919	490689.503338700207	656
1	5930	491529.925859905826	657
1	5939	492423.827614076482	658
1	5946	492838.867482310207	659
1	5955	493646.856282837736	660
1	5962	494252.883675461682	661
1	5971	494965.562982810708	662
1	5980	495459.56977838655	663
1	5989	496598.14861505297	664
1	5998	497107.84965092321	665
1	6007	498209.513391880366	666
1	6018	498925.402871891903	667
1	6025	499300.738084036904	668
1	6034	499761.812592018443	669
1	6043	500731.780746392952	670
1	6054	502071.901694079907	671
1	6065	502907.99322025855	672
1	6070	503536.70680923392	673
1	6079	503973.114460939588	674
1	6088	504968.41822606516	675
1	6097	505731.104379985528	676
1	6110	506689.54002410178	677
1	6117	507117.71693648775	678
1	6128	508229.513195157097	679
1	6135	508670.41323180315	680
1	6142	509370.021567447157	681
1	6151	510000.334325619089	682
1	6164	511194.837021734612	683
1	6173	512086.35643702005	684
1	6182	512800.337694212841	685
1	6189	513548.499147081794	686
1	6196	514004.685384454252	687
1	6207	514689.518693368928	688
1	6218	515433.883543079765	689
1	6223	515837.206418160395	690
1	6232	516179.91725010802	691
1	6245	517262.019946798729	692
1	6254	518098.553090449469	693
1	6263	518739.643219253095	694
1	6272	519418.459303909959	695
1	6279	520107.551577407913	696
1	6286	520565.357037819968	697
1	6297	521781.984511250677	698
1	6308	522408.833263255702	699
1	6315	523113.568378938408	700
1	6324	523651.274410821544	701
1	6331	524255.790004413622	702
1	6344	525350.001766718971	703
1	6353	526240.445273229899	704
1	6360	526801.841421006294	705
1	6369	527588.260388374375	706
1	6378	528382.476403657393	707
1	6387	528919.710461469413	708
1	6396	529668.469657050492	709
1	6405	530377.187303546862	710
1	6414	531318.108398001688	711
1	6423	532352.778254589113	712
1	6430	532802.444029413211	713
1	6443	534008.077179919976	714
1	6452	534658.21478012954	715
1	6459	535487.281949026558	716
1	6468	536075.481522409293	717
1	6475	536870.116130774888	718
1	6486	537518.836093973416	719
1	6493	538526.292567886461	720
1	6502	539267.470654891852	721
1	6511	539839.550431352157	722
1	6520	540596.695617819253	723
1	6529	541318.706509843517	724
1	6538	541785.653624357704	725
1	6551	542826.858203904752	726
1	6558	543477.716677822221	727
1	6565	543857.477384805728	728
1	6574	544508.739771461163	729
1	6583	545417.043117620099	730
1	6592	545979.963247105527	731
1	6601	547085.696292808328	732
1	6612	547813.72946393681	733
1	6619	548188.022773107563	734
1	6632	549678.790208883633	735
1	6637	550112.221676996027	736
1	6650	551299.684127373671	737
1	6659	551983.46099127089	738
1	6664	552415.645026555335	739
1	6677	553438.355701882442	740
1	6682	553764.529248839294	741
1	6693	554730.065212771346	742
1	6702	555288.375839078849	743
1	6713	556195.796892698905	744
1	6722	557057.210991857624	745
1	6727	557461.88748953869	746
1	6736	558446.786663448489	747
1	6745	558974.276921432517	748
1	6754	559965.691085206395	749
1	6763	560626.123194862208	750
1	6772	561566.285782819665	751
1	6783	562457.437123870528	752
1	6786	562801.253055688045	753
1	6799	563808.767701964877	754
1	6812	565078.65700540138	755
1	6817	565810.40186500182	756
1	6826	566436.466274131141	757
1	6839	567114.223163109325	758
1	6844	567627.989726420544	759
1	6853	568172.305074054801	760
1	6864	569324.74686666397	761
1	6871	570222.560472507082	762
1	6880	570874.71527690073	763
1	6893	572195.807329751603	764
1	6900	573017.888761265255	765
1	6911	573844.237235561065	766
1	6916	574530.444529233552	767
1	6929	575390.682126721419	768
1	6934	576198.689374141447	769
1	6943	576588.270626356878	770
1	6952	577118.39165389543	771
1	6961	577662.892362987675	772
1	6970	578609.358817990922	773
1	6979	579206.735176267156	774
1	6990	580064.007803052717	775
1	6997	580372.688553901442	776
1	7006	581363.673820998574	777
1	7015	581767.990822624469	778
1	7026	582818.44895803375	779
1	7033	583627.579043526257	780
1	7046	584636.582593107651	781
1	7055	585432.027357677053	782
1	7062	585964.323914051111	783
1	7069	586568.08112841105	784
1	7080	587644.628587598036	785
1	7087	588089.57208199432	786
1	7096	589252.448283182511	787
1	7109	590024.322852725218	788
1	7118	590841.901506017949	789
1	7127	591699.977182829808	790
1	7132	592331.116428226288	791
1	7143	593418.015224626344	792
1	7152	593925.597815075945	793
1	7159	594407.370243128445	794
1	7172	595488.852852070759	795
1	7181	596128.715958958547	796
1	7190	596807.555744005423	797
1	7199	597473.871624609511	798
1	7204	597970.942529104706	799
1	7215	598640.760548086893	800
1	7226	599457.002297742348	801
1	7231	600029.943155916463	802
1	7242	600797.212683688905	803
1	7253	601513.661521626692	804
1	7258	601914.525534119513	805
1	7271	603165.643746312763	806
1	7280	603827.894882625024	807
1	7287	604520.485485205482	808

