version 2
run Pipelined_3Teachers-48-20190105-10:57:28-23952
attr configname Pipelined_3Teachers
attr datetime 20190105-10:57:28
attr experiment Pipelined_3Teachers
attr inifile ../simulations/omnetpp.ini
attr iterationvars "$0=\"uniform\""
attr iterationvarsf uniform-
attr measurement "$0=\"uniform\""
attr network PipelinedExamSession
attr processid 23952
attr repetition 48
attr replication #48
attr resultdir results
attr runnumber 48
attr seedset 48
param **.teachersNumber 3
param **.answerTimeDistribution "\"uniform\""
param **.minUniform 300
param **.maxUniform 900
param **.scaleLognormal 6.2854
param **.shapeLognormal 0.4724

vector 0 PipelinedExamSession examinationTime:vector ETV
attr source examFinished
vector 1 PipelinedExamSession studentID:vector ETV
attr source student
0	3174	260671.962219849245	2001.1293611024
0	3185	261442.090536374615	1918.8102356158
0	3194	262307.410903181897	2374.5787333231
0	3203	262927.363506518321	2220.3022828326
0	3208	263296.791358105855	1854.7008217312
0	3219	264268.428522627818	1961.0176194459
0	3226	264620.115956710669	1692.7524501923
0	3235	265381.946769682708	1888.3255753666
0	3248	266447.131663933413	2161.2848449498
0	3253	266791.985020414011	1915.3534602374
0	3262	267453.097265912236	1821.1038881913
0	3271	267851.871091453376	1404.73942752
0	3284	269175.542227830755	2056.4064030536
0	3293	270027.555371727812	2373.2882999349
0	3302	270857.02994498426	2481.3875386957
0	3307	271191.858140146378	2016.3159123156
0	3316	271813.542216690275	1785.9868449625
0	3329	273115.33041349614	2258.3004685119
0	3334	273813.508363533783	2132.6038765255
0	3347	274776.411397336069	2437.3656735755
0	3354	275299.459179723653	2184.1287662275
0	3363	276199.325498146954	2283.0051764846
0	3374	277098.801967129129	2322.3905697931
0	3383	277747.237286763284	2415.9888384864
0	3390	278090.804524440337	1887.1545896865
0	3397	279033.145720325429	1934.3437531963
0	3406	279566.276849946026	1819.0395631827
0	3419	280696.875256206859	2110.8915802091
0	3424	281215.95584177414	1944.1308130044
0	3435	282253.090422134865	2369.2765809596
0	3442	282987.733016023431	2290.8577598166
0	3453	283824.973823223282	2249.0936403628
0	3464	284584.277800982836	2164.708417654
0	3473	285131.154863024148	2034.3713305425
0	3482	286022.54882357085	2162.401633244
0	3487	286338.384823361429	1754.1070223786
0	3498	287393.801843700948	2262.6469806768
0	3509	288279.995760368201	2257.4469367974
0	3518	289141.225570673141	2368.4910144657
0	3527	289630.421946896258	2131.927511422
0	3532	289946.38133975679	1666.3855793886
0	3541	290687.877164036054	1546.6515933629
0	3550	291322.463656403142	1692.0417095069
0	3559	292406.006595259549	2037.4562360812
0	3568	293392.053454136493	2131.7859294824
0	3579	294230.004834383744	2069.9910425115
0	3586	294691.319908015447	1652.8019700665
0	3595	295417.575989943015	1669.1237929277
0	3608	296789.45005489515	2452.9061065055
0	3615	297517.693394143152	2337.9001436289
0	3626	298312.372073438036	2263.4305334184
0	3631	298696.365978196281	1906.9159233011
0	3642	299969.838058529439	2319.6302569471
0	3649	300600.19792076202	2287.825847324
0	3660	301204.704155959206	2009.9240706302
0	3669	301916.607247386145	1942.3982997425
0	3678	302682.257145736384	1911.1854151357
0	3687	303586.918139364587	2358.8617805857
0	3698	304287.899084016698	2274.6686737519
0	3705	304696.424920577573	1836.8182827719
0	3714	305261.421194951998	1666.901819827
0	3723	306071.464416012185	1783.5653319955
0	3734	306715.791727323102	1770.0521675404
0	3739	307202.563811978342	1810.1627093274
0	3752	308352.669827453809	2092.6878488157
0	3761	308899.711391888576	2183.9196645655
0	3766	309527.646337403002	2027.3419262376
0	3775	310062.412101449462	1709.7422739957
0	3786	310835.366490902397	1935.6550990138
0	3795	311423.087984276953	1797.4656648003
0	3806	312240.694981813447	1822.2763738129
0	3815	313032.877717260288	2068.8198900316
0	3824	313382.800434948893	1956.1406170484
0	3833	314106.83037601413	1866.1353942007
0	3840	314566.183069674315	1533.305352414
0	3849	315198.624443868192	1815.8240089193
0	3856	315869.221012992801	1762.3906369787
0	3867	316641.732036788034	1961.9492805563
0	3878	317402.179414266738	1894.8645249009
0	3887	318208.984935097414	2053.5728910472
0	3892	318626.550792809593	1910.9257045202
0	3903	319474.189896695334	2072.0104824286
0	3910	319818.329479498807	1609.3445444014
0	3923	321251.952805509809	2191.4329326712
0	3930	321957.788286544401	2320.5918622669
0	3939	322571.060713240895	2056.0362774879
0	3948	323467.722697975133	2215.7698924653
0	3955	324203.728161938508	2191.5932913311
0	3964	324877.575112972427	1999.0085757338
0	3975	326019.177699415032	2402.2480214015
0	3982	326382.911384012569	1924.2670343723
0	3991	327283.093195036073	1979.9357584678
0	4004	328276.365558849667	2174.4686020073
0	4013	329105.383459758033	2313.5864725336
0	4018	329459.102589637061	2058.1451545469
0	4031	330587.25849953482	2310.8929406852
0	4036	331052.061689738204	1946.6782299802
0	4045	331921.471721073632	2056.8586058915
0	4054	332870.544598577564	2283.2860990427
0	4067	333568.57368084604	2207.3822627775
0	4072	333876.615534955655	1665.1807160117
0	4081	334439.720522006993	1421.56108981
0	4092	335431.973098916953	1863.3994180709
0	4099	335899.574781395515	1680.5079483893
0	4112	337204.390289867317	2408.0737923738
0	4119	338041.366662411039	2554.2522452306
0	4130	338930.943546490764	2591.9780361
0	4135	339641.654000803849	2437.2637109365
0	4146	340324.995478335789	2222.3703046795
0	4155	340965.926046017578	2034.9824995268
0	4162	341313.458427507451	1607.2728894185
0	4171	341862.495204526952	1465.2575947344
0	4180	342852.969194110504	1846.2862766348
0	4191	343655.230648443124	2276.728476584
0	4198	344231.883472111097	2120.5880041234
0	4211	345427.569737657926	2496.422019694
0	4216	345849.338007532082	2147.7862849832
0	4227	346543.524414394072	2014.6609481424
0	4238	347655.116241239033	2227.5465035811
0	4245	348276.826657913647	2129.0255420376
0	4252	348609.293492417804	1654.6919157263
0	4265	350082.418276229895	2427.3020349909
0	4272	350873.899571551032	2413.8586093672
0	4281	351649.582845903955	2412.6876553986
0	4288	352005.220858426787	1922.8025821969
0	4297	352853.457429399736	1941.7361979838
0	4308	353619.229815015592	1939.8043327499
0	4319	354847.045441763498	2342.825272819
0	4324	355318.282263167225	2142.6590622403
0	4333	356006.171343522169	2029.3508247938
0	4342	356816.676114639291	1969.6306728758
0	4353	357873.84675079959	2245.335890539
0	4360	358246.588617190742	1779.4287031051
0	4369	358784.3204952311	1450.4876632243
0	4382	359757.890428695851	1826.4582315926
0	4387	360170.099608646729	1659.6634052228
0	4398	360985.54308037276	2030.5538871791
0	4405	361595.994121022547	1838.1036923267
0	4414	362252.61344108733	1856.0361498501
0	4423	362841.349890455628	1836.2274371088
0	4432	363886.135639529699	2107.5910096988
0	4445	364785.369373764867	2117.0904281549
0	4450	365170.182529510954	1766.7982730549
0	4463	366097.000539349416	1896.6795939021
0	4468	366423.628998594383	1638.2596248295
0	4479	367594.037662027428	2215.6968967058
0	4488	368366.306390706474	2269.3058513571
0	4497	369183.311168337266	2409.104963718
0	4506	369906.996017927329	2242.3147381749
0	4513	370677.979491138856	2215.4730991926
0	4526	371697.053498122867	2472.0515060239
0	4535	372595.207392470937	2482.5355814304
0	4540	373023.599523073088	2058.7981879245
0	4551	373828.878842387374	2131.8253442645
0	4562	374479.248388577278	1884.0409961063
0	4569	375277.720477664869	2045.0234960765
0	4578	375816.819751728352	1886.8332906626
0	4585	376250.188118917893	1770.9397303406
0	4594	376925.001145619924	1582.9614903778
0	4607	378278.385646222185	2430.0412542187
0	4616	379176.288539171245	2428.2571665477
0	4625	379992.222368577521	2481.5438357648
0	4634	380763.400339381795	2485.0146931596
0	4643	381657.700361916821	2481.4118227456
0	4648	382119.115045247625	2126.8926766701
0	4659	382862.655265163656	2099.2549257819
0	4670	383954.191238153751	2296.4908762369
0	4679	384534.041627263675	2205.4981999565
0	4686	385111.028580833251	2044.1553242505
0	4697	386133.262511249657	2179.0712730959
0	4702	386537.099229544427	2003.0576022808
0	4713	387627.282798523109	2252.6513467077
0	4720	388529.548694752182	2396.2861835025
0	4729	389189.147713920127	2211.7716392968
0	4742	390155.263502011101	2293.4342389461
0	4751	391020.510797621708	2362.5627703965
0	4758	391623.6208515242	2265.5823624227
0	4767	392334.543719049569	2179.2802170385
0	4778	393233.923399262156	2213.4126016404
0	4785	393804.483476746853	2173.7330001779
0	4792	394337.579998606842	1846.9986903481
0	4805	395402.669188007738	2168.7457887456
0	4810	395729.328277520861	1618.3446051087
0	4821	396507.539605395894	1890.4592495877
0	4828	396869.808569876503	1467.1393818688
0	4839	398104.415963497039	2075.5891195033
0	4846	398620.488394517478	1759.9095358048
0	4855	399649.337258935001	2251.6098128166
0	4864	400229.073429945882	2038.0662077107
0	4875	401099.686599522855	2065.7789394725
0	4882	401631.760066514861	1713.7231939472
0	4895	402532.100865896817	1994.2198272329
0	4904	403426.019838172968	2141.487846477
0	4909	403828.928445652153	1687.8815016244
0	4918	404482.922389078911	1950.8215231821
0	4927	405329.433484794598	1903.4136466216
0	4938	406025.15333150516	1776.2682268862
0	4949	407440.699731046359	2600.139607396
0	4956	408198.178880056391	2502.8387297876
0	4963	408584.903287561636	2008.3519749809
0	4974	409655.599716631721	2214.8999855854
0	4981	410161.272914288591	1892.3515949864
0	4990	411161.375788087051	2158.2743747625
0	4999	411647.248969925593	1827.9568697792
0	5008	412534.36534996147	1837.8091673367
0	5017	413187.954186927553	1717.8958485369
0	5028	413878.505001403417	1637.3202817049
0	5039	414516.295372741323	1795.8497220185
0	5046	414872.308678273138	1545.372254122
0	5053	415759.331107931238	1815.9508950077
0	5066	416703.488190611851	2187.1928178705
0	5075	417320.917260088053	2029.2883379851
0	5082	417884.136279020485	1739.2882616725
0	5093	418857.791677862433	2154.3034872506
0	5102	419712.540906714303	2391.6236466262
0	5107	420064.609103137655	2077.6528322138
0	5116	420625.18005967143	1767.388381809
0	5125	421115.745050227297	1403.204143513
0	5134	422025.594228878645	1831.8299383856
0	5147	423372.056887345416	2283.7146257982
0	5152	423871.563905384419	1956.7730966024
0	5161	424362.069724174244	1601.3233945705
0	5170	424858.315601991517	1486.2587146461
0	5181	425808.265973394764	1748.952767998
0	5188	426241.29849951717	1697.4698773585
0	5197	427120.274600526346	1828.4539719578
0	5208	428055.300189787549	2114.3459614366
0	5219	428958.411943260607	2330.6064848788
0	5226	429519.723782362443	2135.5430271942
0	5233	430202.937230933485	2042.5248036627
0	5242	430959.353412129012	2000.9414688684
0	5255	431685.787607822594	2120.4505680129
0	5264	432481.621141405803	2088.2931732573
0	5273	433266.278645815355	2121.813291125
0	5282	433938.786491984529	2252.9988841619
0	5291	434448.410699749393	1966.7895583436
0	5296	434948.308917274726	1682.0302714594
0	5305	435303.519957745475	1364.7334657609
0	5314	436101.984183630002	1653.5734838806
0	5327	437312.20552618618	2128.7789182272
0	5336	437945.181021234047	2148.5353396274
0	5343	438476.868255576145	1945.8036486525
0	5354	439323.876634938669	2011.6711087525
0	5359	439900.753148132962	1955.5721268989
0	5368	440469.31043816733	1730.7879243046
0	5379	441280.30711454342	1956.4304796048
0	5388	442023.207415267852	1874.3121529464
0	5397	443024.486024910611	2169.6390347555
0	5404	443751.303939800737	2327.8238405474
0	5417	444554.257110413192	2337.1405995917
0	5422	444952.474097069381	1874.3664891925
0	5435	446172.369133913917	2259.4218896236
0	5444	446863.448202330647	2309.1910919175
0	5449	447326.767294434858	1934.64826243
0	5458	447938.930973177804	1766.5618392639
0	5467	448927.748247189475	2064.3000448588
0	5476	449496.369731845361	1943.3444397524
0	5485	450403.225563699407	2068.6528483406
0	5494	451348.737310851021	2154.0913781617
0	5507	452468.807777110516	2384.7601375077
0	5514	452927.756282128422	1964.8392969277
0	5523	453698.594389669626	1996.3772874791
0	5532	454527.219456760242	2058.4116796497
0	5539	455017.989878403052	1761.2267812248
0	5552	456219.116717018217	2259.8996217828
0	5559	456778.429188905314	2170.2937372494
0	5568	457315.883446577967	1860.7348768506
0	5579	458328.929763380469	2109.8130463623
0	5584	458921.938639925824	2053.9909921121
0	5595	459804.180872021274	2194.5660094265
0	5602	460352.411653474004	2023.4818900935
0	5611	460975.252847839178	1896.9996216707
0	5620	461642.103496799276	1697.3643999081
0	5633	462538.682276196809	1959.5915436745
0	5640	463216.420005541326	1941.7815707624
0	5649	463946.206522034512	2060.7674065512
0	5660	464958.314947458016	2419.6326712612
0	5665	465440.24437190968	2041.2081159186
0	5676	466204.457374708759	2075.535378512
0	5683	466616.59940374087	1658.2844562829
0	5692	467339.304413460226	1705.6076542474
0	5701	468709.193686628746	2222.8868125007
0	5712	469655.842567188697	2351.2635188643
0	5723	470668.791950214686	2501.8351003993
0	5732	471394.062485452773	2328.9494901896
0	5741	472100.100784515994	2244.4389553741
0	5746	472568.764083227175	1899.9721330125
0	5757	473126.582497917147	1732.5200124644
0	5764	473599.56119041893	1499.4604059029
0	5773	474645.873425714703	1961.0045910347
0	5782	475135.583391180294	1910.5887486599
0	5791	475667.694596434044	1648.4894386958
0	5800	476910.978175420346	2035.6670495588
0	5809	477702.238469570907	2093.9255069476
0	5818	478251.153807621481	1815.5889219604
0	5823	478571.922576148095	1381.4815278165
0	5836	479893.872215738552	2106.9619804155
0	5849	480845.080523332613	2178.5952191334
0	5854	481183.574674045699	1723.2671672478
0	5863	481727.054757764595	1425.0308558811
0	5874	483021.751654241267	2176.6711309087
0	5885	483846.784630604121	2261.3251347095
0	5894	484723.460627580094	2426.6123908572
0	5901	485335.67832852717	2289.5809811074
0	5908	485855.352325039017	2008.5676944349
0	5921	486762.832629913497	2039.3720023334
0	5930	487617.867561243507	2101.996059576
0	5939	488394.584308331865	2040.8559355885
0	5944	488765.19079115245	2002.358161239
0	5955	489699.381511984426	2081.5139507409
0	5962	490198.768257675725	1804.1839493439
0	5971	490914.173213252831	1687.902325904
0	5980	491471.818274818395	1589.1818205826
0	5989	492539.953243033994	1808.4646391217
0	6002	493502.744258847122	2074.1347060539
0	6007	493940.135988872533	1867.3033153173
0	6016	494572.288573812728	1774.3114120793
0	6025	495781.768174376373	2279.0239155293
0	6036	496476.938628824463	2280.5279717781
0	6043	496781.626524589991	1785.1582457777
0	6052	497709.225140651723	1886.6439975332
0	6063	498677.558224462008	2086.1454087775
0	6070	499544.772597122973	2273.2614117209
0	6079	500314.990605600214	2252.2124134004
0	6088	500777.214567270166	1893.6234588269
0	6097	502044.918607687613	2326.3604232576
0	6110	502887.644536234474	2292.4720834941
0	6119	503748.820724431461	2387.3831075616
0	6124	504378.593539819157	2308.907864755
0	6137	504983.906557643822	2096.2620214093
0	6142	505371.152456710151	1622.3317322787
0	6153	505994.518427504262	1497.5868655834
0	6164	506938.65533773791	1954.7487800941
0	6173	507618.605908658392	2195.0701665133
0	6182	508159.22935302373	2030.2093755919
0	6189	508513.678278587796	1575.0229408499
0	6200	509451.152828335799	1832.5469196774
0	6207	509902.209470747076	1742.9801177233
0	6216	510460.635633347593	1827.7003977913
0	6223	511227.260520262681	1776.1076919269
0	6234	512428.149658301883	2315.9783990588
0	6245	513229.57479287874	2412.4198470265
0	6254	514039.024149533399	2379.6261047479
0	6261	514603.999572945797	2163.355197385
0	6268	515091.407486423888	1861.8326935451
0	6279	516201.290633250066	2162.2664837167
0	6286	516793.932819971853	2148.4946405981
0	6295	517481.774450233244	1940.1029134635
0	6304	518178.498146217354	1892.7754231263
0	6317	519147.740077413656	2160.249105189
0	6324	519786.710967030414	1951.1203374714
0	6333	520682.938902871721	2311.91622857
0	6340	521369.100874755569	2221.3607973419
0	6353	522300.718060741239	2397.8918720037
0	6358	522926.39218890112	2186.8856723886
0	6369	523700.963137205728	2258.4582388401
0	6378	524298.021173570343	1997.3031128291
0	6385	524818.445793679022	1621.4487912599
0	6394	525791.600884404071	2032.7115610242
0	6403	526359.693447500505	2038.1795849651
0	6414	526928.299734788053	1880.6468406692
0	6423	527849.703837605231	1951.1049713474
0	6430	528215.562246926166	1736.5495228674
0	6439	529187.346598366313	2131.656809058
0	6448	529775.839950470291	1898.4558370896
0	6457	530517.941813590043	1957.7022878453
0	6470	531678.573596896641	2357.3042938951
0	6479	532302.966602006964	2114.8796992376
0	6484	532700.28679235842	1749.1517184768
0	6497	533734.495534887575	2055.9219379909
0	6506	534594.582765921988	2291.616163915
0	6513	535205.031508393623	2066.4470225573
0	6520	535515.604122541882	1781.1085876543
0	6529	536083.397739054673	1488.8149731327
0	6538	537014.025284769051	1757.1034919936
0	6549	537822.832444729322	2079.3818302453
0	6558	538715.391747560391	2094.1672494169
0	6567	539277.023416757623	1838.7775990181
0	6576	540255.580521421545	2115.0089071132
0	6587	541053.006067872086	2281.7657374777
0	6594	541501.469379896337	1987.0080606546
0	6603	542638.397721061521	2323.9958767779
0	6614	543443.998913141006	2390.9928452689
0	6619	543755.4832211696	1904.3189944234
0	6630	544594.279089476952	1931.1386314686
0	6637	545229.92034475323	1785.9214316122
0	6646	545962.36062068496	1971.7127310578
0	6657	546849.404508294576	2111.6955687292
0	6668	547560.534557327667	2072.322856402
0	6675	548253.78152062189	2019.529852923
0	6682	548997.577959112862	2103.9607381448
0	6695	549998.679593671152	2438.1450363435
0	6702	550575.670304708222	2302.1051497199
0	6711	551229.125817865173	2073.9705287386
0	6720	551843.355338601435	1844.6757449303
0	6727	552560.218721721361	1764.1514595598
0	6738	553687.830441165756	2363.9890378341
0	6749	554412.987178377848	2266.5415375493
0	6756	554875.708057824563	1891.8252711184
0	6763	555425.304552912753	1702.3897944018
0	6776	556539.824823383282	2126.8376450054
0	6781	557024.646870419423	1982.018923061
0	6790	557960.984825855161	2216.8923223391
0	6803	558676.478440314572	2136.6536169313
0	6810	559077.597341313999	1826.8006176688
0	6817	559800.153668364551	1802.2849949542
0	6828	560686.787519417744	2010.3090791032
0	6837	561281.054265517783	2032.4608291034
0	6846	562236.034775013146	2252.9942627996
0	6857	563194.00966409598	2360.9832112212
0	6866	563946.235417714384	2315.489275055
0	6873	564796.498757600826	2466.3517399225
0	6880	565437.02679667626	2243.0171325803
0	6889	566010.065452242311	2063.8300345279
0	6898	567176.832461915952	2371.4794234838
0	6907	567645.402281312314	2043.9611918293
0	6918	568398.466438148212	1970.8098134492
0	6925	568776.750706974458	1461.8017656729
0	6934	569661.751201842022	1745.4833032563
0	6947	570827.156519796742	2066.9576718472
0	6952	571156.748660188211	1832.8018347267
0	6961	572113.961786963089	1953.917156579
0	6974	573019.716703193305	2192.5601833966
0	6981	573585.161948623179	2150.9249651805
0	6990	574349.968971032693	2213.4722416755
0	7001	574805.725725553973	1786.0090223607
0	7006	575204.765393352179	1340.3046537191
0	7017	576205.213567893995	1741.5756252129
0	7024	576583.679470047398	1777.9537444934
0	7033	577538.808837113945	2174.74426548
0	7044	578659.705142257778	2437.2811159585
0	7051	579096.054911613507	1976.6132949851
0	7064	580343.817531829744	2416.0673137754
0	7071	581066.294694598808	2383.4330256097
0	7078	581657.442733878314	2117.3602163326
0	7089	582465.968745527833	2122.1512136981
0	7100	583304.512978484898	2188.5633369908
0	7107	583791.570648551031	1863.0663259886
0	7118	584893.236318323805	2266.4802497718
0	7123	585645.527874911248	2341.0148964263
0	7132	586263.143547903791	2179.4213473331
0	7141	586951.810211408927	2058.5738930851
0	7152	587764.362637326165	1976.2972134165
0	7161	588562.318326160356	2175.8535055909
0	7168	589097.942924173593	1917.9305695463
0	7173	589627.235151082322	1583.8746844791
0	7188	591054.31061284621	2142.2064390499
0	7197	591730.22762741898	1998.0897593312
0	7204	592541.888358257756	2184.3467265833
0	7213	593104.382655071139	1942.2287823167
0	7226	594104.211498331323	2109.6614504233
0	7233	594527.289676107511	1735.4566067923
0	7240	595052.622918924361	1468.6791366432
0	7249	595775.731404405132	1671.5199060738
0	7258	596521.523218788251	1796.775323851
0	7267	597160.913982940883	1712.7054037526
0	7280	598083.117769332648	2094.3074120209
0	7285	598478.140021115587	1655.3125245497
0	7296	599214.747487474279	1564.225039864
0	7307	600192.350636003584	2109.2328666709
0	7312	600600.792370084718	1978.2304852735
0	7321	601106.032881047622	1808.873246843
0	7334	602021.310516027779	1828.9598800242
0	7339	602531.437481939838	1637.4190532137
0	7350	603260.285049397544	1835.3712595068
0	7357	603847.507021017418	1826.1965049896
1	3174	260671.962219849245	351
1	3185	261442.090536374615	352
1	3194	262307.410903181897	353
1	3203	262927.363506518321	354
1	3208	263296.791358105855	355
1	3219	264268.428522627818	356
1	3226	264620.115956710669	357
1	3235	265381.946769682708	358
1	3248	266447.131663933413	359
1	3253	266791.985020414011	360
1	3262	267453.097265912236	361
1	3271	267851.871091453376	362
1	3284	269175.542227830755	363
1	3293	270027.555371727812	364
1	3302	270857.02994498426	365
1	3307	271191.858140146378	366
1	3316	271813.542216690275	367
1	3329	273115.33041349614	368
1	3334	273813.508363533783	369
1	3347	274776.411397336069	370
1	3354	275299.459179723653	371
1	3363	276199.325498146954	372
1	3374	277098.801967129129	373
1	3383	277747.237286763284	374
1	3390	278090.804524440337	375
1	3397	279033.145720325429	376
1	3406	279566.276849946026	377
1	3419	280696.875256206859	378
1	3424	281215.95584177414	379
1	3435	282253.090422134865	380
1	3442	282987.733016023431	381
1	3453	283824.973823223282	382
1	3464	284584.277800982836	383
1	3473	285131.154863024148	384
1	3482	286022.54882357085	385
1	3487	286338.384823361429	386
1	3498	287393.801843700948	387
1	3509	288279.995760368201	388
1	3518	289141.225570673141	389
1	3527	289630.421946896258	390
1	3532	289946.38133975679	391
1	3541	290687.877164036054	392
1	3550	291322.463656403142	393
1	3559	292406.006595259549	394
1	3568	293392.053454136493	395
1	3579	294230.004834383744	396
1	3586	294691.319908015447	397
1	3595	295417.575989943015	398
1	3608	296789.45005489515	399
1	3615	297517.693394143152	400
1	3626	298312.372073438036	401
1	3631	298696.365978196281	402
1	3642	299969.838058529439	403
1	3649	300600.19792076202	404
1	3660	301204.704155959206	405
1	3669	301916.607247386145	406
1	3678	302682.257145736384	407
1	3687	303586.918139364587	408
1	3698	304287.899084016698	409
1	3705	304696.424920577573	410
1	3714	305261.421194951998	411
1	3723	306071.464416012185	412
1	3734	306715.791727323102	413
1	3739	307202.563811978342	414
1	3752	308352.669827453809	415
1	3761	308899.711391888576	416
1	3766	309527.646337403002	417
1	3775	310062.412101449462	418
1	3786	310835.366490902397	419
1	3795	311423.087984276953	420
1	3806	312240.694981813447	421
1	3815	313032.877717260288	422
1	3824	313382.800434948893	423
1	3833	314106.83037601413	424
1	3840	314566.183069674315	425
1	3849	315198.624443868192	426
1	3856	315869.221012992801	427
1	3867	316641.732036788034	428
1	3878	317402.179414266738	429
1	3887	318208.984935097414	430
1	3892	318626.550792809593	431
1	3903	319474.189896695334	432
1	3910	319818.329479498807	433
1	3923	321251.952805509809	434
1	3930	321957.788286544401	435
1	3939	322571.060713240895	436
1	3948	323467.722697975133	437
1	3955	324203.728161938508	438
1	3964	324877.575112972427	439
1	3975	326019.177699415032	440
1	3982	326382.911384012569	441
1	3991	327283.093195036073	442
1	4004	328276.365558849667	443
1	4013	329105.383459758033	444
1	4018	329459.102589637061	445
1	4031	330587.25849953482	446
1	4036	331052.061689738204	447
1	4045	331921.471721073632	448
1	4054	332870.544598577564	449
1	4067	333568.57368084604	450
1	4072	333876.615534955655	451
1	4081	334439.720522006993	452
1	4092	335431.973098916953	453
1	4099	335899.574781395515	454
1	4112	337204.390289867317	455
1	4119	338041.366662411039	456
1	4130	338930.943546490764	457
1	4135	339641.654000803849	458
1	4146	340324.995478335789	459
1	4155	340965.926046017578	460
1	4162	341313.458427507451	461
1	4171	341862.495204526952	462
1	4180	342852.969194110504	463
1	4191	343655.230648443124	464
1	4198	344231.883472111097	465
1	4211	345427.569737657926	466
1	4216	345849.338007532082	467
1	4227	346543.524414394072	468
1	4238	347655.116241239033	469
1	4245	348276.826657913647	470
1	4252	348609.293492417804	471
1	4265	350082.418276229895	472
1	4272	350873.899571551032	473
1	4281	351649.582845903955	474
1	4288	352005.220858426787	475
1	4297	352853.457429399736	476
1	4308	353619.229815015592	477
1	4319	354847.045441763498	478
1	4324	355318.282263167225	479
1	4333	356006.171343522169	480
1	4342	356816.676114639291	481
1	4353	357873.84675079959	482
1	4360	358246.588617190742	483
1	4369	358784.3204952311	484
1	4382	359757.890428695851	485
1	4387	360170.099608646729	486
1	4398	360985.54308037276	487
1	4405	361595.994121022547	488
1	4414	362252.61344108733	489
1	4423	362841.349890455628	490
1	4432	363886.135639529699	491
1	4445	364785.369373764867	492
1	4450	365170.182529510954	493
1	4463	366097.000539349416	494
1	4468	366423.628998594383	495
1	4479	367594.037662027428	496
1	4488	368366.306390706474	497
1	4497	369183.311168337266	498
1	4506	369906.996017927329	499
1	4513	370677.979491138856	500
1	4526	371697.053498122867	501
1	4535	372595.207392470937	502
1	4540	373023.599523073088	503
1	4551	373828.878842387374	504
1	4562	374479.248388577278	505
1	4569	375277.720477664869	506
1	4578	375816.819751728352	507
1	4585	376250.188118917893	508
1	4594	376925.001145619924	509
1	4607	378278.385646222185	510
1	4616	379176.288539171245	511
1	4625	379992.222368577521	512
1	4634	380763.400339381795	513
1	4643	381657.700361916821	514
1	4648	382119.115045247625	515
1	4659	382862.655265163656	516
1	4670	383954.191238153751	517
1	4679	384534.041627263675	518
1	4686	385111.028580833251	519
1	4697	386133.262511249657	520
1	4702	386537.099229544427	521
1	4713	387627.282798523109	522
1	4720	388529.548694752182	523
1	4729	389189.147713920127	524
1	4742	390155.263502011101	525
1	4751	391020.510797621708	526
1	4758	391623.6208515242	527
1	4767	392334.543719049569	528
1	4778	393233.923399262156	529
1	4785	393804.483476746853	530
1	4792	394337.579998606842	531
1	4805	395402.669188007738	532
1	4810	395729.328277520861	533
1	4821	396507.539605395894	534
1	4828	396869.808569876503	535
1	4839	398104.415963497039	536
1	4846	398620.488394517478	537
1	4855	399649.337258935001	538
1	4864	400229.073429945882	539
1	4875	401099.686599522855	540
1	4882	401631.760066514861	541
1	4895	402532.100865896817	542
1	4904	403426.019838172968	543
1	4909	403828.928445652153	544
1	4918	404482.922389078911	545
1	4927	405329.433484794598	546
1	4938	406025.15333150516	547
1	4949	407440.699731046359	548
1	4956	408198.178880056391	549
1	4963	408584.903287561636	550
1	4974	409655.599716631721	551
1	4981	410161.272914288591	552
1	4990	411161.375788087051	553
1	4999	411647.248969925593	554
1	5008	412534.36534996147	555
1	5017	413187.954186927553	556
1	5028	413878.505001403417	557
1	5039	414516.295372741323	558
1	5046	414872.308678273138	559
1	5053	415759.331107931238	560
1	5066	416703.488190611851	561
1	5075	417320.917260088053	562
1	5082	417884.136279020485	563
1	5093	418857.791677862433	564
1	5102	419712.540906714303	565
1	5107	420064.609103137655	566
1	5116	420625.18005967143	567
1	5125	421115.745050227297	568
1	5134	422025.594228878645	569
1	5147	423372.056887345416	570
1	5152	423871.563905384419	571
1	5161	424362.069724174244	572
1	5170	424858.315601991517	573
1	5181	425808.265973394764	574
1	5188	426241.29849951717	575
1	5197	427120.274600526346	576
1	5208	428055.300189787549	577
1	5219	428958.411943260607	578
1	5226	429519.723782362443	579
1	5233	430202.937230933485	580
1	5242	430959.353412129012	581
1	5255	431685.787607822594	582
1	5264	432481.621141405803	583
1	5273	433266.278645815355	584
1	5282	433938.786491984529	585
1	5291	434448.410699749393	586
1	5296	434948.308917274726	587
1	5305	435303.519957745475	588
1	5314	436101.984183630002	589
1	5327	437312.20552618618	590
1	5336	437945.181021234047	591
1	5343	438476.868255576145	592
1	5354	439323.876634938669	593
1	5359	439900.753148132962	594
1	5368	440469.31043816733	595
1	5379	441280.30711454342	596
1	5388	442023.207415267852	597
1	5397	443024.486024910611	598
1	5404	443751.303939800737	599
1	5417	444554.257110413192	600
1	5422	444952.474097069381	601
1	5435	446172.369133913917	602
1	5444	446863.448202330647	603
1	5449	447326.767294434858	604
1	5458	447938.930973177804	605
1	5467	448927.748247189475	606
1	5476	449496.369731845361	607
1	5485	450403.225563699407	608
1	5494	451348.737310851021	609
1	5507	452468.807777110516	610
1	5514	452927.756282128422	611
1	5523	453698.594389669626	612
1	5532	454527.219456760242	613
1	5539	455017.989878403052	614
1	5552	456219.116717018217	615
1	5559	456778.429188905314	616
1	5568	457315.883446577967	617
1	5579	458328.929763380469	618
1	5584	458921.938639925824	619
1	5595	459804.180872021274	620
1	5602	460352.411653474004	621
1	5611	460975.252847839178	622
1	5620	461642.103496799276	623
1	5633	462538.682276196809	624
1	5640	463216.420005541326	625
1	5649	463946.206522034512	626
1	5660	464958.314947458016	627
1	5665	465440.24437190968	628
1	5676	466204.457374708759	629
1	5683	466616.59940374087	630
1	5692	467339.304413460226	631
1	5701	468709.193686628746	632
1	5712	469655.842567188697	633
1	5723	470668.791950214686	634
1	5732	471394.062485452773	635
1	5741	472100.100784515994	636
1	5746	472568.764083227175	637
1	5757	473126.582497917147	638
1	5764	473599.56119041893	639
1	5773	474645.873425714703	640
1	5782	475135.583391180294	641
1	5791	475667.694596434044	642
1	5800	476910.978175420346	643
1	5809	477702.238469570907	644
1	5818	478251.153807621481	645
1	5823	478571.922576148095	646
1	5836	479893.872215738552	647
1	5849	480845.080523332613	648
1	5854	481183.574674045699	649
1	5863	481727.054757764595	650
1	5874	483021.751654241267	651
1	5885	483846.784630604121	652
1	5894	484723.460627580094	653
1	5901	485335.67832852717	654
1	5908	485855.352325039017	655
1	5921	486762.832629913497	656
1	5930	487617.867561243507	657
1	5939	488394.584308331865	658
1	5944	488765.19079115245	659
1	5955	489699.381511984426	660
1	5962	490198.768257675725	661
1	5971	490914.173213252831	662
1	5980	491471.818274818395	663
1	5989	492539.953243033994	664
1	6002	493502.744258847122	665
1	6007	493940.135988872533	666
1	6016	494572.288573812728	667
1	6025	495781.768174376373	668
1	6036	496476.938628824463	669
1	6043	496781.626524589991	670
1	6052	497709.225140651723	671
1	6063	498677.558224462008	672
1	6070	499544.772597122973	673
1	6079	500314.990605600214	674
1	6088	500777.214567270166	675
1	6097	502044.918607687613	676
1	6110	502887.644536234474	677
1	6119	503748.820724431461	678
1	6124	504378.593539819157	679
1	6137	504983.906557643822	680
1	6142	505371.152456710151	681
1	6153	505994.518427504262	682
1	6164	506938.65533773791	683
1	6173	507618.605908658392	684
1	6182	508159.22935302373	685
1	6189	508513.678278587796	686
1	6200	509451.152828335799	687
1	6207	509902.209470747076	688
1	6216	510460.635633347593	689
1	6223	511227.260520262681	690
1	6234	512428.149658301883	691
1	6245	513229.57479287874	692
1	6254	514039.024149533399	693
1	6261	514603.999572945797	694
1	6268	515091.407486423888	695
1	6279	516201.290633250066	696
1	6286	516793.932819971853	697
1	6295	517481.774450233244	698
1	6304	518178.498146217354	699
1	6317	519147.740077413656	700
1	6324	519786.710967030414	701
1	6333	520682.938902871721	702
1	6340	521369.100874755569	703
1	6353	522300.718060741239	704
1	6358	522926.39218890112	705
1	6369	523700.963137205728	706
1	6378	524298.021173570343	707
1	6385	524818.445793679022	708
1	6394	525791.600884404071	709
1	6403	526359.693447500505	710
1	6414	526928.299734788053	711
1	6423	527849.703837605231	712
1	6430	528215.562246926166	713
1	6439	529187.346598366313	714
1	6448	529775.839950470291	715
1	6457	530517.941813590043	716
1	6470	531678.573596896641	717
1	6479	532302.966602006964	718
1	6484	532700.28679235842	719
1	6497	533734.495534887575	720
1	6506	534594.582765921988	721
1	6513	535205.031508393623	722
1	6520	535515.604122541882	723
1	6529	536083.397739054673	724
1	6538	537014.025284769051	725
1	6549	537822.832444729322	726
1	6558	538715.391747560391	727
1	6567	539277.023416757623	728
1	6576	540255.580521421545	729
1	6587	541053.006067872086	730
1	6594	541501.469379896337	731
1	6603	542638.397721061521	732
1	6614	543443.998913141006	733
1	6619	543755.4832211696	734
1	6630	544594.279089476952	735
1	6637	545229.92034475323	736
1	6646	545962.36062068496	737
1	6657	546849.404508294576	738
1	6668	547560.534557327667	739
1	6675	548253.78152062189	740
1	6682	548997.577959112862	741
1	6695	549998.679593671152	742
1	6702	550575.670304708222	743
1	6711	551229.125817865173	744
1	6720	551843.355338601435	745
1	6727	552560.218721721361	746
1	6738	553687.830441165756	747
1	6749	554412.987178377848	748
1	6756	554875.708057824563	749
1	6763	555425.304552912753	750
1	6776	556539.824823383282	751
1	6781	557024.646870419423	752
1	6790	557960.984825855161	753
1	6803	558676.478440314572	754
1	6810	559077.597341313999	755
1	6817	559800.153668364551	756
1	6828	560686.787519417744	757
1	6837	561281.054265517783	758
1	6846	562236.034775013146	759
1	6857	563194.00966409598	760
1	6866	563946.235417714384	761
1	6873	564796.498757600826	762
1	6880	565437.02679667626	763
1	6889	566010.065452242311	764
1	6898	567176.832461915952	765
1	6907	567645.402281312314	766
1	6918	568398.466438148212	767
1	6925	568776.750706974458	768
1	6934	569661.751201842022	769
1	6947	570827.156519796742	770
1	6952	571156.748660188211	771
1	6961	572113.961786963089	772
1	6974	573019.716703193305	773
1	6981	573585.161948623179	774
1	6990	574349.968971032693	775
1	7001	574805.725725553973	776
1	7006	575204.765393352179	777
1	7017	576205.213567893995	778
1	7024	576583.679470047398	779
1	7033	577538.808837113945	780
1	7044	578659.705142257778	781
1	7051	579096.054911613507	782
1	7064	580343.817531829744	783
1	7071	581066.294694598808	784
1	7078	581657.442733878314	785
1	7089	582465.968745527833	786
1	7100	583304.512978484898	787
1	7107	583791.570648551031	788
1	7118	584893.236318323805	789
1	7123	585645.527874911248	790
1	7132	586263.143547903791	791
1	7141	586951.810211408927	792
1	7152	587764.362637326165	793
1	7161	588562.318326160356	794
1	7168	589097.942924173593	795
1	7173	589627.235151082322	796
1	7188	591054.31061284621	797
1	7197	591730.22762741898	798
1	7204	592541.888358257756	799
1	7213	593104.382655071139	800
1	7226	594104.211498331323	801
1	7233	594527.289676107511	802
1	7240	595052.622918924361	803
1	7249	595775.731404405132	804
1	7258	596521.523218788251	805
1	7267	597160.913982940883	806
1	7280	598083.117769332648	807
1	7285	598478.140021115587	808
1	7296	599214.747487474279	809
1	7307	600192.350636003584	810
1	7312	600600.792370084718	811
1	7321	601106.032881047622	812
1	7334	602021.310516027779	813
1	7339	602531.437481939838	814
1	7350	603260.285049397544	815
1	7357	603847.507021017418	816

