version 2
run Pipelined_3Teachers-27-20190105-10:57:23-22196
attr configname Pipelined_3Teachers
attr datetime 20190105-10:57:23
attr experiment Pipelined_3Teachers
attr inifile ../simulations/omnetpp.ini
attr iterationvars "$0=\"uniform\""
attr iterationvarsf uniform-
attr measurement "$0=\"uniform\""
attr network PipelinedExamSession
attr processid 22196
attr repetition 27
attr replication #27
attr resultdir results
attr runnumber 27
attr seedset 27
param **.teachersNumber 3
param **.answerTimeDistribution "\"uniform\""
param **.minUniform 300
param **.maxUniform 900
param **.scaleLognormal 6.2854
param **.shapeLognormal 0.4724

vector 0 PipelinedExamSession examinationTime:vector ETV
attr source examFinished
vector 1 PipelinedExamSession studentID:vector ETV
attr source student
0	3120	260655.662498250622	2376.0927310679
0	3131	261519.590875832382	2434.8834573291
0	3138	262068.401489825937	2205.435974244
0	3145	262927.147988230008	2207.175054308
0	3154	263370.669322740305	1851.0784469079
0	3163	264133.972887787985	1716.304438049
0	3174	265339.678397169355	2036.1273986287
0	3183	265893.59874841759	1956.8260033149
0	3192	266624.762526853028	1929.0553980041
0	3199	267076.797833293694	1686.5302695427
0	3210	268176.669787662123	2039.6893751342
0	3217	268784.538111509775	2125.4174543079
0	3228	269901.078790007179	2411.0120647587
0	3235	270467.38075283358	2239.2186077312
0	3248	271387.620353372788	2313.130696211
0	3255	272140.71850120092	2235.1479982026
0	3262	272463.166731828844	1682.9017702024
0	3271	273082.266594981795	1694.646241609
0	3282	273903.908431716283	1713.0729669705
0	3285	274345.73687100785	1648.1982821133
0	3298	275555.476118903626	1978.7561268546
0	3307	276262.868489557897	1896.2393111084
0	3320	277503.705471334999	2321.7003587633
0	3325	277829.067253600826	1817.7952475846
0	3338	279150.39092944937	2367.1463525388
0	3343	279464.226383669322	1960.5209123343
0	3348	279837.614820571637	1544.6827656124
0	3365	281685.980803426376	2535.589873977
0	3370	282061.48143047469	2018.3736443985
0	3381	282939.878276735565	2059.0854777955
0	3392	283845.802490925437	2159.8216874991
0	3397	284170.869449945187	1633.9040968101
0	3406	284723.512789048275	1581.7902064417
0	3417	285715.885085659122	1870.0825947337
0	3424	286190.657878434306	1841.8392178137
0	3433	287103.419130435234	2012.8595493268
0	3446	287971.149174682817	2155.9777546674
0	3451	288357.630593329689	1775.1994193997
0	3464	289576.77212515848	2350.9848307818
0	3469	290061.914093093968	2090.7649184112
0	3478	290805.814348440638	1979.2912577279
0	3487	291602.974503440804	2026.2023782823
0	3498	292479.137801472119	2025.0953062903
0	3505	292889.296641899294	1558.8645386975
0	3514	293969.725082209355	2269.2155680619
0	3527	294932.837064983344	2341.3741267752
0	3532	295351.73295903953	1876.1582518928
0	3541	295929.451701091623	1729.0726723149
0	3552	297144.270172901472	2211.4331079181
0	3559	297746.97755528616	2049.4085492101
0	3570	298259.275799291229	1805.1110435743
0	3579	298793.039780482671	1541.1956569646
0	3586	299659.952759183964	1854.7874558251
0	3595	300397.292515262982	1994.3800721783
0	3606	301301.853593392318	2162.1828928124
0	3613	301839.40060059542	1943.9234708436
0	3626	302760.705391690155	2069.3762230687
0	3633	303235.178335709517	1762.3426240403
0	3640	303554.39957245255	1406.4202593639
0	3649	304132.885356852805	1372.1799651626
0	3658	305005.051495693644	1743.5234497301
0	3671	306023.797289421802	2161.20988084
0	3676	306501.060445373898	1913.0869056098
0	3689	307352.775697270428	2039.3901724834
0	3694	307686.000309465473	1662.2030200437
0	3705	308460.802630987038	1551.9992178306
0	3712	309256.692092539762	1903.9163952693
0	3723	310226.744437683395	2326.0750205722
0	3734	311426.452185865512	2657.5169644319
0	3739	312015.532714314779	2352.05345219
0	3752	312783.128991862779	2248.8255637698
0	3759	313309.654164640253	1883.2019787747
0	3762	313650.145652331432	1417.120726034
0	3775	314461.433848226463	1678.3048563637
0	3784	315312.364009302129	1633.7597922888
0	3793	316286.436432972571	1988.1158706732
0	3802	317334.472933318487	2223.1921097729
0	3811	318284.388524713015	2325.3451365978
0	3820	318700.391974160469	1906.9636025
0	3833	320149.16630582886	2612.4305047095
0	3840	320780.467945430448	2397.0309325028
0	3851	321814.950038306436	2557.8714102041
0	3856	322331.010455964154	2181.8441501353
0	3869	323343.650810653365	2301.0722493287
0	3876	323914.715728489703	2099.7656901833
0	3883	324740.303642861566	2026.1723495554
0	3894	325240.71525768379	1897.0644470304
0	3901	325565.75087257663	1346.5257103555
0	3914	326723.139395657949	1958.0918073189
0	3921	327345.010421890788	1947.737424681
0	3928	327708.465036889561	1627.7787771542
0	3939	328648.191941063874	1925.0525454059
0	3948	329123.397873435192	1727.0370557439
0	3957	329979.638709872983	2073.9028193057
0	3964	330489.823476271726	1819.0401461441
0	3973	331197.289921296783	1699.8947613873
0	3986	332433.395377965666	2274.8341741506
0	3993	332921.021605096779	2198.8317340147
0	4002	333734.535926906414	2131.6168825608
0	4013	334587.135889241494	2153.7405112758
0	4022	335481.365630915411	2308.1617714372
0	4029	336048.122486891248	2054.6067789663
0	4040	336882.564926985674	2295.4290377442
0	4049	337437.751215649791	1956.3855847344
0	4056	338139.367538737155	1908.9451679494
0	4065	339067.158546857559	2184.5936198719
0	4072	339659.741856995993	2221.9906413462
0	4085	340552.729231305443	2237.4770600349
0	4092	341173.278226610296	2104.1307368316
0	4099	341969.008734449767	2237.1482288931
0	4112	343022.366730915406	2469.63749961
0	4117	343372.609941428551	2047.8597597219
0	4128	344301.799644995504	2115.9801813774
0	4135	344934.718683594861	1912.3519526795
0	4144	345417.038126522699	1641.7834534775
0	4153	346563.486846210459	2070.0568658765
0	4164	347243.322630459467	2012.3402289581
0	4175	348033.281229715819	1953.0075542629
0	4180	348477.852995228047	1692.8880491294
0	4193	349405.87181760932	1806.4441356808
0	4202	350185.911239124859	2152.630009409
0	4211	351060.959724755982	2327.4601839948
0	4220	351886.718308646256	2480.8464910369
0	4229	352721.555643389026	2535.6444042642
0	4238	353413.114129006887	2352.1544042509
0	4247	353921.134020807246	2034.415712161
0	4254	354522.743056900824	1801.1874135118
0	4265	355402.691558841641	1989.5774298348
0	4274	356178.361992957096	2257.2279721498
0	4281	356877.781487256314	2292.1328625642
0	4292	357529.885966284226	2127.1944074426
0	4299	358192.73943859155	2014.3774456345
0	4310	358853.986456291776	1966.5056505706
0	4319	359731.642880709868	2201.7569144256
0	4328	360478.460402553927	2259.8761932459
0	4337	360995.793392322983	2141.8069360312
0	4346	361772.816608333986	2041.1737276241
0	4355	362608.757985290166	2130.2975827362
0	4362	363276.522480184238	2280.7290878613
0	4373	364134.462505532454	2361.6458971985
0	4378	364499.254404846604	1890.4964195564
0	4391	365624.334170529644	2343.3939417824
0	4396	366074.019182799409	1939.556677267
0	4409	367150.124814128529	2292.2466442455
0	4418	368032.272211136322	2407.9380406067
0	4427	368627.133780252214	2300.3901989199
0	4432	368969.736288394805	1819.6114742663
0	4441	369630.108584091092	1597.8363729548
0	4454	370762.739811977397	2135.6060317252
0	4463	371519.515612022977	2322.7678162046
0	4468	372072.362322080906	2096.9667370431
0	4481	372934.11275837573	2171.3729463983
0	4488	373532.862419122856	2013.3468070999
0	4495	374199.695665435891	1795.0816642027
0	4504	374975.517049804355	2041.4042914286
0	4515	375784.947731159653	1986.4801615477
0	4524	376368.657872267093	1905.878668651
0	4533	377329.087337013359	2027.6610764209
0	4542	377934.410054096977	2066.8192815967
0	4551	378676.015221141304	1987.8756640479
0	4562	379258.26483238491	1835.7309849467
0	4567	379718.051575636517	1530.4039106704
0	4578	380410.436687059726	1674.3169440888
0	4585	381088.964487053479	1830.6996546686
0	4596	381888.325046701383	1950.1324874349
0	4603	382376.160288043346	1699.4431567378
0	4612	383051.299985311951	1778.8648255169
0	4621	383661.515573412206	1699.3516056798
0	4634	384420.328329456997	1696.593181137
0	4639	384958.730880450484	1747.2242705058
0	4652	386030.080830305841	2163.3119471837
0	4661	386818.965442478683	2398.6371130217
0	4670	387708.427871530902	2430.2618082147
0	4675	388175.722696026814	2145.641865721
0	4686	388995.066829584565	2176.1013871059
0	4693	389741.409641085219	2032.9817695543
0	4704	390771.299490658593	2452.3635294288
0	4713	391389.920217404169	2230.0052039791
0	4722	392386.730821011615	2347.5495189428
0	4729	392796.678686141995	1918.3934523258
0	4740	393867.998782312525	2267.7829101216
0	4747	394539.788922993494	2120.4152663704
0	4756	395238.088530069245	1932.0340627804
0	4765	396028.269503731308	2038.4608890396
0	4778	397266.125784907518	2386.4633498713
0	4783	397716.504537686734	2025.0206348486
0	4792	398519.361835531918	2094.7455976624
0	4801	399346.487356675817	2080.3615717683
0	4810	400463.421671697897	2343.0366568733
0	4823	401370.589449629215	2465.523977112
0	4828	401938.985537365106	2147.709906986
0	4839	402581.806891690967	2006.838895753
0	4846	403185.624679271159	1815.0352296419
0	4855	403999.602724285824	1924.1789949127
0	4864	404768.396872188924	2054.036947852
0	4873	405651.238272059737	2150.9189673699
0	4882	406332.631465047625	2043.9313878771
0	4893	407021.290099527715	1888.8150829822
0	4900	407593.795876018731	1615.5667033978
0	4909	408141.373043367667	1684.3270823825
0	4918	409212.004059925703	1944.7042947169
0	4931	410224.822303606225	2109.3757096678
0	4938	410743.432036321638	1938.0520236678
0	4949	411762.308264477207	2137.240185868
0	4954	412224.175685271649	1999.3533816654
0	4965	413332.881249999656	2364.5864635706
0	4976	413998.870971193566	2236.5627067164
0	4985	414855.744301155238	2283.1879227888
0	4992	415203.324507270037	1797.8418309242
0	4999	415852.532289130641	1853.6613179371
0	5012	416822.868307912751	1967.1240067575
0	5019	417663.664487656235	2393.2907250244
0	5028	418302.783568762272	2327.1034675185
0	5039	419174.193679215416	2351.3253713027
0	5046	419791.201924625814	2089.5088984631
0	5057	420943.031672202081	2499.3656451814
0	5066	421368.255915027142	2194.0622358117
0	5071	421687.733368808434	1633.6417615414
0	5082	422668.453679094121	1725.422006892
0	5089	423423.239326570213	2054.9834115431
0	5100	424072.187753766806	1891.3849296514
0	5107	424622.73653028536	1779.0702838451
0	5118	425555.470232851834	1862.7274295781
0	5129	426216.916212067038	1982.3953825515
0	5138	426927.406933810592	2216.1622563377
0	5145	427496.09102262187	1890.1969915722
0	5156	428357.442355994165	2140.5261439271
0	5165	429130.926002003282	2203.5190681927
0	5172	429757.636881200626	2249.8350702692
0	5183	430566.72681402418	2209.28445803
0	5192	431225.342147285148	2094.4161452819
0	5201	432051.519940746977	2285.0561554078
0	5208	432690.422171540587	2123.6953575164
0	5217	433257.610197365313	2032.2680500802
0	5226	433861.587206600263	1810.0672658533
0	5237	434780.639701662614	2015.0507376529
0	5242	435191.921382257744	1754.8538495321
0	5255	436121.263250755175	1922.4978353363
0	5264	436985.883132414921	2205.2434307523
0	5271	437444.261552626296	1961.0864854418
0	5280	438267.561861081077	2146.2986103259
0	5287	438910.785199329285	1924.9020669144
0	5296	439585.191341768979	2062.9342700355
0	5305	440068.64984272982	1680.3493196145
0	5314	441463.359197415439	2271.4182609692
0	5327	442177.83126295547	2155.6183470413
0	5332	442534.817876899643	1622.7923159022
0	5341	443264.173041377245	1621.8207365368
0	5354	444451.249126251815	2273.4178632963
0	5359	444884.79668847288	1955.4552691989
0	5370	445778.636799193946	1966.6369086597
0	5379	446225.641835108427	1774.3927088566
0	5386	446809.981081075994	1567.1082082205
0	5399	448301.186715764952	2408.0625108909
0	5406	448791.093550762189	2094.2355147097
0	5417	449568.623192841215	2003.7554791197
0	5424	450170.751971052988	1869.565255288
0	5433	450972.486862214311	2161.6578636691
0	5444	451656.412369664786	2087.7891768236
0	5449	452086.24929632063	1679.5966793317
0	5458	452639.642239222331	1645.6844082568
0	5469	453838.6873493437	2182.2749796789
0	5480	454482.034702319681	1996.096815588
0	5485	455195.486251171708	1975.6057439838
0	5498	455881.921134889156	2024.1895590909
0	5505	456507.094419747621	2025.0597174279
0	5512	457217.386181233481	1976.6872360837
0	5521	457973.885869514227	2091.9647346251
0	5530	458500.32908236611	1874.89330885
0	5541	459216.322618117587	1740.2612722479
0	5552	459964.105838583813	1719.3543029018
0	5559	460699.904785864086	1803.2197322231
0	5570	461432.125496165858	2190.0737006217
0	5577	462219.597312575237	2255.4914739914
0	5586	462812.026234623076	2058.4822002333
0	5597	463635.88521173227	2203.7597155664
0	5604	464135.700504854353	1914.5933322608
0	5611	464984.256875049354	2140.9770917147
0	5622	465634.577700449186	1998.6924887169
0	5633	466380.417407350646	1926.6102723777
0	5642	467169.780619209664	2132.2077023797
0	5651	468050.861163111435	2412.0349053293
0	5660	468895.803118636863	2515.3857112862
0	5669	469525.538559677111	2355.7579404674
0	5678	470345.652786316382	2294.7916232049
0	5685	470859.903155313837	1964.100036677
0	5692	471475.999638391691	1950.4610787146
0	5705	472419.616982387411	2073.964196071
0	5714	473145.618327800217	2048.3805226162
0	5721	473928.745292080599	2285.5413038749
0	5730	474573.915913794222	2154.2989314068
0	5741	475472.527005337211	2326.908677537
0	5748	476113.936730939927	2168.6989577953
0	5755	476696.654655598137	1971.0466322489
0	5768	477816.193484002757	2343.6664786655
0	5777	478394.87193161625	2177.7648728807
0	5786	479294.377121329341	2357.0203883573
0	5793	479808.832398941774	1992.638914939
0	5802	480582.931917859275	2188.059986243
0	5809	481014.460742147673	1720.0836208183
0	5820	482265.691193053532	2285.3260158096
0	5831	483244.668404571745	2464.0508045442
0	5838	484016.433543479103	2417.1963029075
0	5847	484433.07930864397	1990.2168157976
0	5854	484844.816534500602	1600.1481299289
0	5863	485856.109161023084	1839.0898275655
0	5872	486406.064854469184	1603.8920206949
0	5881	487557.067684549872	1964.8811364546
0	5892	488490.150058781762	2176.9484632183
0	5901	489131.717575527761	1930.2154138684
0	5910	489849.957621004466	1882.3628413025
0	5919	490436.018188297782	1714.6572025493
0	5928	491311.100279074196	1848.3391164802
0	5935	491627.342793066088	1696.5466181282
0	5948	493094.711541803587	2363.3696197998
0	5955	493695.794871356372	2070.1536001638
0	5964	494268.688449868966	1967.8043659776
0	5971	495190.058163693208	2095.3466218896
0	5982	496243.077128799665	2513.4081871714
0	5991	496841.966794431242	2217.3801868223
0	6000	497395.073715504291	1913.3542948868
0	6011	498272.906674956935	1961.9461518712
0	6018	499032.255208957973	2171.5131471399
0	6025	499404.644760908592	1656.9576468319
0	6038	500121.698026405679	1848.7913514487
0	6043	500564.870162727343	1392.4478535075
0	6056	501491.093652974846	1956.3347409479
0	6065	502100.725280446964	1979.0272540413
0	6074	502903.365019289809	2069.0097094048
0	6079	503280.21007999781	1789.116427023
0	6092	504348.976996215093	2248.2517157681
0	6099	505009.734620014238	2106.3696007244
0	6108	505876.352264592457	2146.9876441173
0	6119	506839.144055871326	2490.1670596562
0	6126	507654.75467196669	2442.4745484721
0	6137	508585.616636043448	2631.3025758136
0	6142	508971.998211974312	2132.854156103
0	6155	510114.913745317641	2420.2863269951
0	6162	510582.035691384259	1996.4190553408
0	6169	511252.598523069206	1973.7241747789
0	6180	512066.753808036479	1951.8400627188
0	6191	512795.418021502006	1977.0276103634
0	6198	513366.126375971395	1908.7373251095
0	6205	513748.284907126832	1562.8620757721
0	6214	514627.856540819663	1832.4385193177
0	6223	515538.26569807719	2001.8507265486
0	6232	516275.212940666858	1973.8076427486
0	6241	516942.319391481611	1811.9157311507
0	6250	517894.387812679667	2206.9796887692
0	6259	518735.811502765897	2189.888104191
0	6268	519502.491228841278	2102.6218411513
0	6281	520412.474274309385	2177.4566074368
0	6290	521024.26295760091	1895.494476473
0	6299	521766.743996087495	2094.4456262514
0	6304	522298.255483154241	1885.7812088449
0	6315	522888.413541018996	1864.1505834181
0	6322	523304.918704507906	1538.1747084204
0	6331	524046.064388193223	1696.2597011123
0	6342	524922.924166778136	1999.2356326897
0	6351	525742.179036699268	2216.4084127173
0	6360	526593.667336832765	2236.6972255055
0	6367	527131.246076524291	1877.114073839
0	6380	527973.439109930802	2079.1783626191
0	6389	528870.728204911608	2102.5562306866
0	6398	529635.314037418026	2221.6026874725
0	6407	530242.041447199914	2268.6023372691
0	6416	531099.952231720123	2229.2240268085
0	6423	531809.726214828003	2174.41217741
0	6434	532553.860940923947	2311.819493724
0	6439	532906.872900389168	1806.920668669
0	6448	533602.461275830898	1703.7852920126
0	6461	534585.427028546143	2031.5660876222
0	6468	534980.599822383407	1608.8054532185
0	6475	535470.551217114586	1582.91631178
0	6486	536491.630501113865	1906.2034725677
0	6497	537275.787807628545	1981.3475221395
0	6506	537799.644388631019	1972.0099490136
0	6513	538433.280839910764	1748.164282646
0	6520	538987.157883541692	1711.3700759131
0	6529	539853.778094099867	2054.1337054688
0	6538	540709.218603093209	2097.8297588881
0	6549	541338.911958737331	1846.3490098715
0	6560	542171.827860781955	2091.3326181471
0	6569	542997.874893480944	2110.1941411849
0	6578	543661.579512851345	2121.5819620527
0	6583	544004.765622457522	1832.9377616756
0	6596	545229.223035089704	2231.3481416088
0	6603	545619.707586849141	1958.1280739978
0	6606	546040.958928409997	1585.0381627679
0	6623	547804.993188986587	2575.7701538969
0	6628	548265.922590158912	2143.8304650597
0	6637	549136.480877269092	2129.8214529175
0	6648	550188.225138047743	2383.2319490612
0	6655	550538.499349588561	1911.8502088822
0	6664	550959.176942613008	1590.5886420049
0	6677	551697.823289455879	1429.4937057886
0	6684	552187.258932692963	1566.9090738986
0	6691	552719.955945247817	1567.0591718517
0	6702	554164.525650115717	2466.7023606598
0	6713	555019.416088052127	2447.3676949739
0	6722	555621.946650557253	2307.7246047556
0	6731	556405.945461429689	2217.1424184926
0	6736	556812.923009740222	1793.5069216881
0	6747	557775.40347198959	2153.4568214323
0	6754	558540.965034160796	2135.0195727311
0	6763	558978.134863497723	1694.7068420704
0	6774	560113.395404722575	2144.0421290696
0	6781	560509.142441768233	1884.6795078367
0	6792	561605.643940810147	2298.8354841247
0	6801	562295.763026364181	2179.9658350647
0	6812	563049.469131091643	2132.123427093
0	6819	563671.993423579294	1906.8282624241
0	6826	564404.894703626666	1999.229005957
0	6839	565340.362874139134	2290.8937430475
0	6846	566094.094573566724	2242.0910510235
0	6853	566779.463522275944	2189.2585861031
0	6862	567507.559927180444	2167.1970530413
0	6871	568055.014539370347	1816.4393474814
0	6884	569295.27568481866	2242.4032115377
0	6891	569692.059910856222	1751.1828588322
0	6900	570727.889403188636	1978.2478879206
0	6911	571403.719835914706	2108.444151096
0	6920	572276.487431209569	2325.9945897851
0	6929	573130.370322614943	2280.7690504007
0	6938	573968.49400363866	2564.774167724
0	6947	574670.278260111844	2393.7908289023
0	6956	575353.097218740767	2222.7268961258
0	6963	575891.145503148472	1922.6514995098
0	6970	576279.91395425055	1609.6356941387
0	6979	577379.478577757289	2026.3813590165
0	6988	578077.237191237544	2165.2670797426
0	6999	578903.190328320524	2092.8909765556
0	7006	579660.526384552976	1971.7414756771
0	7015	580412.199105927756	2031.7167235538
0	7026	581346.413786988741	2176.6049559228
0	7033	582024.308322183823	2158.9676467236
0	7046	582866.079974547064	2152.0318538882
0	7053	583503.600790584495	2124.4982224423
0	7062	584066.162102110719	1954.6809154563
0	7071	584875.937264319545	2009.8572897725
0	7080	585264.095172705165	1659.241973469
0	7091	586311.175597552246	2189.6810442209
0	7096	586886.151085607743	2005.6028941646
0	7105	587424.467642605341	1658.3866839297
0	7116	588637.704386981241	2326.528789429
0	7123	589076.325868628956	2001.7913149204
0	7134	589753.192811971568	1854.3181723449
0	7141	590411.685740528666	1677.9126337264
0	7154	591434.503357484974	2018.5986687429
0	7163	592028.624456701838	2184.3522186857
0	7170	592604.672895697915	2019.1954648588
0	7179	593435.179113596716	2000.6757561117
0	7188	594210.257159359792	2181.632702658
0	7197	594848.18142321896	2226.331524644
0	7204	595578.681587800423	2118.5169154778
0	7213	596239.656524732748	1938.2290684618
0	7224	597051.721841516011	1909.6158143599
0	7231	597723.995186062568	1812.6296351664
0	7244	598741.448415862434	2299.6397859883
0	7251	599409.569397009947	2080.3343171719
0	7260	600013.844843348526	1924.9971886631
0	7269	600508.800378022753	1767.3519621603
0	7276	601123.61909151081	1569.701039046
0	7285	601602.549992222376	1516.8048903812
0	7294	602195.414475817272	1375.8560960647
0	7305	603237.059280881696	1772.3134396132
0	7312	603621.059472626113	1695.1028543059
0	7323	604775.836612097957	2026.6403237823
1	3120	260655.662498250622	345
1	3131	261519.590875832382	346
1	3138	262068.401489825937	347
1	3145	262927.147988230008	348
1	3154	263370.669322740305	349
1	3163	264133.972887787985	350
1	3174	265339.678397169355	351
1	3183	265893.59874841759	352
1	3192	266624.762526853028	353
1	3199	267076.797833293694	354
1	3210	268176.669787662123	355
1	3217	268784.538111509775	356
1	3228	269901.078790007179	357
1	3235	270467.38075283358	358
1	3248	271387.620353372788	359
1	3255	272140.71850120092	360
1	3262	272463.166731828844	361
1	3271	273082.266594981795	362
1	3282	273903.908431716283	363
1	3285	274345.73687100785	364
1	3298	275555.476118903626	365
1	3307	276262.868489557897	366
1	3320	277503.705471334999	367
1	3325	277829.067253600826	368
1	3338	279150.39092944937	369
1	3343	279464.226383669322	370
1	3348	279837.614820571637	371
1	3365	281685.980803426376	372
1	3370	282061.48143047469	373
1	3381	282939.878276735565	374
1	3392	283845.802490925437	375
1	3397	284170.869449945187	376
1	3406	284723.512789048275	377
1	3417	285715.885085659122	378
1	3424	286190.657878434306	379
1	3433	287103.419130435234	380
1	3446	287971.149174682817	381
1	3451	288357.630593329689	382
1	3464	289576.77212515848	383
1	3469	290061.914093093968	384
1	3478	290805.814348440638	385
1	3487	291602.974503440804	386
1	3498	292479.137801472119	387
1	3505	292889.296641899294	388
1	3514	293969.725082209355	389
1	3527	294932.837064983344	390
1	3532	295351.73295903953	391
1	3541	295929.451701091623	392
1	3552	297144.270172901472	393
1	3559	297746.97755528616	394
1	3570	298259.275799291229	395
1	3579	298793.039780482671	396
1	3586	299659.952759183964	397
1	3595	300397.292515262982	398
1	3606	301301.853593392318	399
1	3613	301839.40060059542	400
1	3626	302760.705391690155	401
1	3633	303235.178335709517	402
1	3640	303554.39957245255	403
1	3649	304132.885356852805	404
1	3658	305005.051495693644	405
1	3671	306023.797289421802	406
1	3676	306501.060445373898	407
1	3689	307352.775697270428	408
1	3694	307686.000309465473	409
1	3705	308460.802630987038	410
1	3712	309256.692092539762	411
1	3723	310226.744437683395	412
1	3734	311426.452185865512	413
1	3739	312015.532714314779	414
1	3752	312783.128991862779	415
1	3759	313309.654164640253	416
1	3762	313650.145652331432	417
1	3775	314461.433848226463	418
1	3784	315312.364009302129	419
1	3793	316286.436432972571	420
1	3802	317334.472933318487	421
1	3811	318284.388524713015	422
1	3820	318700.391974160469	423
1	3833	320149.16630582886	424
1	3840	320780.467945430448	425
1	3851	321814.950038306436	426
1	3856	322331.010455964154	427
1	3869	323343.650810653365	428
1	3876	323914.715728489703	429
1	3883	324740.303642861566	430
1	3894	325240.71525768379	431
1	3901	325565.75087257663	432
1	3914	326723.139395657949	433
1	3921	327345.010421890788	434
1	3928	327708.465036889561	435
1	3939	328648.191941063874	436
1	3948	329123.397873435192	437
1	3957	329979.638709872983	438
1	3964	330489.823476271726	439
1	3973	331197.289921296783	440
1	3986	332433.395377965666	441
1	3993	332921.021605096779	442
1	4002	333734.535926906414	443
1	4013	334587.135889241494	444
1	4022	335481.365630915411	445
1	4029	336048.122486891248	446
1	4040	336882.564926985674	447
1	4049	337437.751215649791	448
1	4056	338139.367538737155	449
1	4065	339067.158546857559	450
1	4072	339659.741856995993	451
1	4085	340552.729231305443	452
1	4092	341173.278226610296	453
1	4099	341969.008734449767	454
1	4112	343022.366730915406	455
1	4117	343372.609941428551	456
1	4128	344301.799644995504	457
1	4135	344934.718683594861	458
1	4144	345417.038126522699	459
1	4153	346563.486846210459	460
1	4164	347243.322630459467	461
1	4175	348033.281229715819	462
1	4180	348477.852995228047	463
1	4193	349405.87181760932	464
1	4202	350185.911239124859	465
1	4211	351060.959724755982	466
1	4220	351886.718308646256	467
1	4229	352721.555643389026	468
1	4238	353413.114129006887	469
1	4247	353921.134020807246	470
1	4254	354522.743056900824	471
1	4265	355402.691558841641	472
1	4274	356178.361992957096	473
1	4281	356877.781487256314	474
1	4292	357529.885966284226	475
1	4299	358192.73943859155	476
1	4310	358853.986456291776	477
1	4319	359731.642880709868	478
1	4328	360478.460402553927	479
1	4337	360995.793392322983	480
1	4346	361772.816608333986	481
1	4355	362608.757985290166	482
1	4362	363276.522480184238	483
1	4373	364134.462505532454	484
1	4378	364499.254404846604	485
1	4391	365624.334170529644	486
1	4396	366074.019182799409	487
1	4409	367150.124814128529	488
1	4418	368032.272211136322	489
1	4427	368627.133780252214	490
1	4432	368969.736288394805	491
1	4441	369630.108584091092	492
1	4454	370762.739811977397	493
1	4463	371519.515612022977	494
1	4468	372072.362322080906	495
1	4481	372934.11275837573	496
1	4488	373532.862419122856	497
1	4495	374199.695665435891	498
1	4504	374975.517049804355	499
1	4515	375784.947731159653	500
1	4524	376368.657872267093	501
1	4533	377329.087337013359	502
1	4542	377934.410054096977	503
1	4551	378676.015221141304	504
1	4562	379258.26483238491	505
1	4567	379718.051575636517	506
1	4578	380410.436687059726	507
1	4585	381088.964487053479	508
1	4596	381888.325046701383	509
1	4603	382376.160288043346	510
1	4612	383051.299985311951	511
1	4621	383661.515573412206	512
1	4634	384420.328329456997	513
1	4639	384958.730880450484	514
1	4652	386030.080830305841	515
1	4661	386818.965442478683	516
1	4670	387708.427871530902	517
1	4675	388175.722696026814	518
1	4686	388995.066829584565	519
1	4693	389741.409641085219	520
1	4704	390771.299490658593	521
1	4713	391389.920217404169	522
1	4722	392386.730821011615	523
1	4729	392796.678686141995	524
1	4740	393867.998782312525	525
1	4747	394539.788922993494	526
1	4756	395238.088530069245	527
1	4765	396028.269503731308	528
1	4778	397266.125784907518	529
1	4783	397716.504537686734	530
1	4792	398519.361835531918	531
1	4801	399346.487356675817	532
1	4810	400463.421671697897	533
1	4823	401370.589449629215	534
1	4828	401938.985537365106	535
1	4839	402581.806891690967	536
1	4846	403185.624679271159	537
1	4855	403999.602724285824	538
1	4864	404768.396872188924	539
1	4873	405651.238272059737	540
1	4882	406332.631465047625	541
1	4893	407021.290099527715	542
1	4900	407593.795876018731	543
1	4909	408141.373043367667	544
1	4918	409212.004059925703	545
1	4931	410224.822303606225	546
1	4938	410743.432036321638	547
1	4949	411762.308264477207	548
1	4954	412224.175685271649	549
1	4965	413332.881249999656	550
1	4976	413998.870971193566	551
1	4985	414855.744301155238	552
1	4992	415203.324507270037	553
1	4999	415852.532289130641	554
1	5012	416822.868307912751	555
1	5019	417663.664487656235	556
1	5028	418302.783568762272	557
1	5039	419174.193679215416	558
1	5046	419791.201924625814	559
1	5057	420943.031672202081	560
1	5066	421368.255915027142	561
1	5071	421687.733368808434	562
1	5082	422668.453679094121	563
1	5089	423423.239326570213	564
1	5100	424072.187753766806	565
1	5107	424622.73653028536	566
1	5118	425555.470232851834	567
1	5129	426216.916212067038	568
1	5138	426927.406933810592	569
1	5145	427496.09102262187	570
1	5156	428357.442355994165	571
1	5165	429130.926002003282	572
1	5172	429757.636881200626	573
1	5183	430566.72681402418	574
1	5192	431225.342147285148	575
1	5201	432051.519940746977	576
1	5208	432690.422171540587	577
1	5217	433257.610197365313	578
1	5226	433861.587206600263	579
1	5237	434780.639701662614	580
1	5242	435191.921382257744	581
1	5255	436121.263250755175	582
1	5264	436985.883132414921	583
1	5271	437444.261552626296	584
1	5280	438267.561861081077	585
1	5287	438910.785199329285	586
1	5296	439585.191341768979	587
1	5305	440068.64984272982	588
1	5314	441463.359197415439	589
1	5327	442177.83126295547	590
1	5332	442534.817876899643	591
1	5341	443264.173041377245	592
1	5354	444451.249126251815	593
1	5359	444884.79668847288	594
1	5370	445778.636799193946	595
1	5379	446225.641835108427	596
1	5386	446809.981081075994	597
1	5399	448301.186715764952	598
1	5406	448791.093550762189	599
1	5417	449568.623192841215	600
1	5424	450170.751971052988	601
1	5433	450972.486862214311	602
1	5444	451656.412369664786	603
1	5449	452086.24929632063	604
1	5458	452639.642239222331	605
1	5469	453838.6873493437	606
1	5480	454482.034702319681	607
1	5485	455195.486251171708	608
1	5498	455881.921134889156	609
1	5505	456507.094419747621	610
1	5512	457217.386181233481	611
1	5521	457973.885869514227	612
1	5530	458500.32908236611	613
1	5541	459216.322618117587	614
1	5552	459964.105838583813	615
1	5559	460699.904785864086	616
1	5570	461432.125496165858	617
1	5577	462219.597312575237	618
1	5586	462812.026234623076	619
1	5597	463635.88521173227	620
1	5604	464135.700504854353	621
1	5611	464984.256875049354	622
1	5622	465634.577700449186	623
1	5633	466380.417407350646	624
1	5642	467169.780619209664	625
1	5651	468050.861163111435	626
1	5660	468895.803118636863	627
1	5669	469525.538559677111	628
1	5678	470345.652786316382	629
1	5685	470859.903155313837	630
1	5692	471475.999638391691	631
1	5705	472419.616982387411	632
1	5714	473145.618327800217	633
1	5721	473928.745292080599	634
1	5730	474573.915913794222	635
1	5741	475472.527005337211	636
1	5748	476113.936730939927	637
1	5755	476696.654655598137	638
1	5768	477816.193484002757	639
1	5777	478394.87193161625	640
1	5786	479294.377121329341	641
1	5793	479808.832398941774	642
1	5802	480582.931917859275	643
1	5809	481014.460742147673	644
1	5820	482265.691193053532	645
1	5831	483244.668404571745	646
1	5838	484016.433543479103	647
1	5847	484433.07930864397	648
1	5854	484844.816534500602	649
1	5863	485856.109161023084	650
1	5872	486406.064854469184	651
1	5881	487557.067684549872	652
1	5892	488490.150058781762	653
1	5901	489131.717575527761	654
1	5910	489849.957621004466	655
1	5919	490436.018188297782	656
1	5928	491311.100279074196	657
1	5935	491627.342793066088	658
1	5948	493094.711541803587	659
1	5955	493695.794871356372	660
1	5964	494268.688449868966	661
1	5971	495190.058163693208	662
1	5982	496243.077128799665	663
1	5991	496841.966794431242	664
1	6000	497395.073715504291	665
1	6011	498272.906674956935	666
1	6018	499032.255208957973	667
1	6025	499404.644760908592	668
1	6038	500121.698026405679	669
1	6043	500564.870162727343	670
1	6056	501491.093652974846	671
1	6065	502100.725280446964	672
1	6074	502903.365019289809	673
1	6079	503280.21007999781	674
1	6092	504348.976996215093	675
1	6099	505009.734620014238	676
1	6108	505876.352264592457	677
1	6119	506839.144055871326	678
1	6126	507654.75467196669	679
1	6137	508585.616636043448	680
1	6142	508971.998211974312	681
1	6155	510114.913745317641	682
1	6162	510582.035691384259	683
1	6169	511252.598523069206	684
1	6180	512066.753808036479	685
1	6191	512795.418021502006	686
1	6198	513366.126375971395	687
1	6205	513748.284907126832	688
1	6214	514627.856540819663	689
1	6223	515538.26569807719	690
1	6232	516275.212940666858	691
1	6241	516942.319391481611	692
1	6250	517894.387812679667	693
1	6259	518735.811502765897	694
1	6268	519502.491228841278	695
1	6281	520412.474274309385	696
1	6290	521024.26295760091	697
1	6299	521766.743996087495	698
1	6304	522298.255483154241	699
1	6315	522888.413541018996	700
1	6322	523304.918704507906	701
1	6331	524046.064388193223	702
1	6342	524922.924166778136	703
1	6351	525742.179036699268	704
1	6360	526593.667336832765	705
1	6367	527131.246076524291	706
1	6380	527973.439109930802	707
1	6389	528870.728204911608	708
1	6398	529635.314037418026	709
1	6407	530242.041447199914	710
1	6416	531099.952231720123	711
1	6423	531809.726214828003	712
1	6434	532553.860940923947	713
1	6439	532906.872900389168	714
1	6448	533602.461275830898	715
1	6461	534585.427028546143	716
1	6468	534980.599822383407	717
1	6475	535470.551217114586	718
1	6486	536491.630501113865	719
1	6497	537275.787807628545	720
1	6506	537799.644388631019	721
1	6513	538433.280839910764	722
1	6520	538987.157883541692	723
1	6529	539853.778094099867	724
1	6538	540709.218603093209	725
1	6549	541338.911958737331	726
1	6560	542171.827860781955	727
1	6569	542997.874893480944	728
1	6578	543661.579512851345	729
1	6583	544004.765622457522	730
1	6596	545229.223035089704	731
1	6603	545619.707586849141	732
1	6606	546040.958928409997	733
1	6623	547804.993188986587	734
1	6628	548265.922590158912	735
1	6637	549136.480877269092	736
1	6648	550188.225138047743	737
1	6655	550538.499349588561	738
1	6664	550959.176942613008	739
1	6677	551697.823289455879	740
1	6684	552187.258932692963	741
1	6691	552719.955945247817	742
1	6702	554164.525650115717	743
1	6713	555019.416088052127	744
1	6722	555621.946650557253	745
1	6731	556405.945461429689	746
1	6736	556812.923009740222	747
1	6747	557775.40347198959	748
1	6754	558540.965034160796	749
1	6763	558978.134863497723	750
1	6774	560113.395404722575	751
1	6781	560509.142441768233	752
1	6792	561605.643940810147	753
1	6801	562295.763026364181	754
1	6812	563049.469131091643	755
1	6819	563671.993423579294	756
1	6826	564404.894703626666	757
1	6839	565340.362874139134	758
1	6846	566094.094573566724	759
1	6853	566779.463522275944	760
1	6862	567507.559927180444	761
1	6871	568055.014539370347	762
1	6884	569295.27568481866	763
1	6891	569692.059910856222	764
1	6900	570727.889403188636	765
1	6911	571403.719835914706	766
1	6920	572276.487431209569	767
1	6929	573130.370322614943	768
1	6938	573968.49400363866	769
1	6947	574670.278260111844	770
1	6956	575353.097218740767	771
1	6963	575891.145503148472	772
1	6970	576279.91395425055	773
1	6979	577379.478577757289	774
1	6988	578077.237191237544	775
1	6999	578903.190328320524	776
1	7006	579660.526384552976	777
1	7015	580412.199105927756	778
1	7026	581346.413786988741	779
1	7033	582024.308322183823	780
1	7046	582866.079974547064	781
1	7053	583503.600790584495	782
1	7062	584066.162102110719	783
1	7071	584875.937264319545	784
1	7080	585264.095172705165	785
1	7091	586311.175597552246	786
1	7096	586886.151085607743	787
1	7105	587424.467642605341	788
1	7116	588637.704386981241	789
1	7123	589076.325868628956	790
1	7134	589753.192811971568	791
1	7141	590411.685740528666	792
1	7154	591434.503357484974	793
1	7163	592028.624456701838	794
1	7170	592604.672895697915	795
1	7179	593435.179113596716	796
1	7188	594210.257159359792	797
1	7197	594848.18142321896	798
1	7204	595578.681587800423	799
1	7213	596239.656524732748	800
1	7224	597051.721841516011	801
1	7231	597723.995186062568	802
1	7244	598741.448415862434	803
1	7251	599409.569397009947	804
1	7260	600013.844843348526	805
1	7269	600508.800378022753	806
1	7276	601123.61909151081	807
1	7285	601602.549992222376	808
1	7294	602195.414475817272	809
1	7305	603237.059280881696	810
1	7312	603621.059472626113	811
1	7323	604775.836612097957	812

