version 2
run Pipelined_3Teachers-68-20190105-10:57:33-22336
attr configname Pipelined_3Teachers
attr datetime 20190105-10:57:33
attr experiment Pipelined_3Teachers
attr inifile ../simulations/omnetpp.ini
attr iterationvars "$0=\"uniform\""
attr iterationvarsf uniform-
attr measurement "$0=\"uniform\""
attr network PipelinedExamSession
attr processid 22336
attr repetition 68
attr replication #68
attr resultdir results
attr runnumber 68
attr seedset 68
param **.teachersNumber 3
param **.answerTimeDistribution "\"uniform\""
param **.minUniform 300
param **.maxUniform 900
param **.scaleLognormal 6.2854
param **.shapeLognormal 0.4724

vector 0 PipelinedExamSession examinationTime:vector ETV
attr source examFinished
vector 1 PipelinedExamSession studentID:vector ETV
attr source student
0	3174	260467.821954377019	2073.7065930851
0	3185	261289.764749631309	2097.3980271723
0	3192	261906.752871489176	1917.7859698422
0	3199	262462.673766771355	1792.0820284635
0	3208	263134.932360984408	1845.1676113531
0	3217	264057.43952142077	2079.0292358492
0	3230	265088.928985688858	2314.1140487976
0	3239	265948.417327087395	2362.2440387495
0	3246	266561.168826743983	2113.5951527394
0	3257	267359.193020034604	2270.2640343457
0	3262	267676.990730920829	1728.5734038334
0	3273	268759.795006178342	2149.9630942941
0	3280	269108.416797034465	1749.2237769999
0	3289	269980.335645005128	1894.2398410756
0	3302	270898.565944097958	2020.2452180441
0	3309	271240.813701320461	1662.9662637133
0	3316	272010.588468471563	1960.706203524
0	3325	272768.554973602317	1869.9890295044
0	3334	273381.021909322611	1696.1137285922
0	3345	274016.9345345814	1574.8539316468
0	3352	274446.425465634115	1528.585344879
0	3365	275651.967022055782	2036.1214473378
0	3374	276366.500414488859	2281.8198977038
0	3379	276714.491840964205	1931.3809562009
0	3388	277583.062127977631	1931.0951059218
0	3397	278154.530265089146	1788.0298506003
0	3406	279281.062184041388	2075.6839301437
0	3417	280301.322128064952	2468.4936458711
0	3424	280907.864178344629	2207.4044797104
0	3433	281709.285410726465	2160.2700653952
0	3442	282303.511041356272	1872.691935394
0	3451	282873.519490147031	1645.5051667057
0	3460	283308.001812966562	1318.5623447411
0	3473	284512.405069638065	2051.0198594537
0	3478	284815.752688469387	1809.4920536969
0	3487	285666.301126359052	1924.6594792698
0	3498	286381.070101540557	1868.6650319025
0	3505	286988.09100687506	1585.4421210475
0	3516	287723.363036150134	1777.6772598736
0	3523	288397.302313288695	1874.9115584884
0	3532	288958.42040386053	1798.6825576052
0	3541	289616.818187059856	1680.5326561444
0	3550	290265.714007616065	1695.578068262
0	3561	291468.350553559161	2096.6815719847
0	3568	291874.628822179533	1747.3472696263
0	3579	292878.235714836068	2003.9144894108
0	3590	293987.268966995202	2263.1034556311
0	3595	294694.932763790734	2287.1392177418
0	3606	295162.859618570678	2072.0055115409
0	3613	295892.421129997842	1905.1521630026
0	3626	296663.716619415232	1932.6266380493
0	3633	297088.888993626484	1753.6197801121
0	3642	297548.902677325555	1428.0971876811
0	3651	298353.005231637531	1689.2886122223
0	3662	299106.577415764355	2014.3621814903
0	3669	299960.841131955408	2321.084656287
0	3678	300477.2982421797	2059.2001641635
0	3689	301366.162698715948	2259.5852829516
0	3694	301786.432894086488	1815.7027891371
0	3707	302967.471735784807	2268.5965455137
0	3712	303431.777853146218	2065.6151544303
0	3725	304565.120762866013	2445.7399277017
0	3734	305338.192982040368	2370.7212462556
0	3739	305803.055660845734	1994.314814033
0	3752	307023.736524162836	2458.6157612968
0	3761	307906.542932242177	2568.3499502018
0	3770	308665.380521491192	2477.8326419648
0	3775	308969.232727121584	1945.4962029587
0	3784	309600.260790484048	1693.7178582419
0	3793	310186.690859450049	1521.3103379589
0	3804	311013.226180197693	1808.8469384238
0	3811	311320.581252314172	1512.1519500855
0	3822	312354.884268622867	1868.4820644557
0	3831	313238.991973735415	2162.7406397369
0	3842	314144.033221760787	2320.5066690221
0	3849	314836.203957349084	2375.848728558
0	3860	315730.394628318049	2463.3428680245
0	3869	316599.148299777903	2455.1150780171
0	3876	317030.147292790957	2108.8846544735
0	3883	317447.855856455885	1717.4612281378
0	3892	318422.218575188913	1823.070275411
0	3903	319415.949997259327	1985.4529147502
0	3910	320303.597170254238	2278.2387234271
0	3921	320983.75483537095	2196.8766666949
0	3932	321973.697885731257	2297.0905944239
0	3937	322444.3325287197	2000.2262959722
0	3948	323000.365152256585	1862.8052063752
0	3957	323670.85697008299	1697.1590843517
0	3966	324504.556329455248	2016.2512969226
0	3977	325659.024978010006	2449.3885701522
0	3986	326429.950520396255	2346.373200696
0	3991	326904.217603895836	2108.2002423238
0	4000	327374.921758705773	1715.8967806958
0	4009	328599.747382197552	2169.7968618013
0	4022	329249.717296706536	2175.9076149669
0	4027	329651.376971555897	1767.4974309281
0	4038	330577.308907359862	1893.9722693525
0	4049	331411.437504552328	2161.7202078458
0	4058	332166.220189863839	2091.6674148291
0	4063	332571.842018142366	1756.8949846085
0	4074	333737.206963961967	2325.7694594096
0	4083	334338.036271696933	2171.8160818331
0	4092	335236.914039636054	2174.2880665697
0	4099	335800.444737961539	1921.6400961857
0	4108	336391.6193563957	1819.6358231362
0	4117	337158.967595687159	1845.5013795756
0	4126	337856.473274901533	1894.3656295538
0	4137	338813.174415472918	1966.8729193043
0	4144	339313.0153317936	1764.1304008663
0	4155	340328.106913715624	2082.7581964899
0	4162	340667.645055335038	1671.2619809434
0	4171	341676.891918433854	2069.8780259583
0	4180	342546.338149113604	2040.3161059599
0	4191	343418.836743850284	2116.707300581
0	4198	344097.345757763856	1908.0432987772
0	4211	345176.459155418003	2331.1426861212
0	4220	345981.954409182096	2418.7140582595
0	4225	346477.691604243616	2131.6478289664
0	4236	347150.614038901428	1974.1548834834
0	4245	347877.385902637641	1895.4314934555
0	4254	348489.510621177058	1829.8487244174
0	4263	348965.813172748338	1535.8925751876
0	4270	349755.780582921605	1807.3948953766
0	4283	350608.24052849787	2043.933902448
0	4290	351251.089607924248	1976.1206821538
0	4297	351758.217789279322	1867.2907995991
0	4306	352627.516442863296	2019.2759143654
0	4315	353338.715556683044	1914.1431461088
0	4324	354231.656115967806	2047.5800047629
0	4335	355038.374811736892	2115.5520066619
0	4342	355879.354566475402	2194.3411341403
0	4351	356224.828959675531	1663.8364937156
0	4360	356995.732407085624	1918.3106143959
0	4373	358217.299357568871	2291.9276984408
0	4378	358538.680469943236	2026.4513564296
0	4389	359759.308822033953	2372.4612310063
0	4396	360068.592259241294	1851.2929016724
0	4405	361161.422909656566	2076.3993124478
0	4418	362381.982572469887	2543.224371504
0	4423	362868.357081385356	2178.0743458774
0	4436	364073.609135253381	2579.0020792745
0	4443	364754.585724324014	2372.6031518541
0	4454	365521.782396733787	2347.9927461594
0	4461	366395.542725222211	2321.9335899688
0	4470	366880.863066762712	1967.2267401125
0	4477	367440.214992966529	1918.4325962327
0	4490	368361.612064624231	1952.484159451
0	4495	368944.765753671553	1984.9981256761
0	4508	369751.783612556782	2098.9392612129
0	4515	370203.27447946186	1841.6624148376
0	4526	370988.624847354394	1757.6092401054
0	4533	371414.706451166448	1662.9228386097
0	4536	371745.352727500749	1369.2057718523
0	4549	372840.479683131006	1851.8548357766
0	4558	373708.172855665933	1855.8785058092
0	4569	374627.260734234031	1961.7392596789
0	4576	374997.595030674737	1840.0792723987
0	4587	375982.657782873165	1980.0508485641
0	4596	377017.269084602621	2261.722437758
0	4603	377358.412228245315	1712.6098148525
0	4616	378341.988287586746	1927.5994864292
0	4623	378913.284328719628	1639.6880154032
0	4634	379834.155825292719	1890.1907094754
0	4641	380335.387725569335	1993.3994379826
0	4648	380907.044596318183	1734.5258591697
0	4659	381545.954661956085	1711.7988366634
0	4668	382380.9273190331	1748.1938438024
0	4679	383642.826029146118	2548.5939444043
0	4684	383953.297295607654	2056.3892788254
0	4697	385284.236115356936	2508.4209982306
0	4702	385688.663762435346	2045.8377332892
0	4711	386552.951408224209	2062.3196615372
0	4724	387714.562529185816	2430.3264138289
0	4731	388230.857985187351	2123.1718847528
0	4738	388775.751986587449	1864.2530143261
0	4749	389401.795254880592	1687.2327256948
0	4758	390180.025573074846	1784.7565960139
0	4769	391149.64881967756	2255.650141323
0	4776	391716.490267636283	2111.5473494399
0	4783	392653.37989758703	2201.5852893703
0	4794	393091.620832309156	1941.9720126316
0	4805	393967.965273326292	2059.8898073193
0	4812	394362.967553269147	1681.8408383522
0	4819	395185.20662896338	1896.1004753597
0	4828	395858.791668852821	1890.8263955265
0	4837	396503.673125384404	1643.4257665649
0	4846	397534.870211407571	1901.9989952445
0	4857	398174.146463815152	1988.4961389005
0	4866	399124.224745854764	2125.7922763936
0	4875	399712.747673224686	1979.0136116557
0	4882	400402.940231049462	2079.9360366538
0	4895	401273.605923866881	2125.4481083248
0	4902	402023.993961559637	2266.5668658447
0	4911	402609.155907388805	2058.673045272
0	4918	403174.416103027789	1900.8101791609
0	4931	404358.519650436967	2333.3180323709
0	4938	404915.862654335826	2105.1537293941
0	4945	405507.050966704293	1914.5637741778
0	4958	406619.088067067816	2260.5684166308
0	4963	406940.971641428798	1982.9298914876
0	4974	407998.513250704884	2198.591214465
0	4983	408810.655107256054	2191.5670401882
0	4990	409547.347512608423	2233.7912917603
0	4999	410407.940002391144	2210.4384422768
0	5008	410999.673505174025	2045.859606564
0	5021	412152.147321263358	2364.1365784686
0	5030	412737.455429183349	2092.3103611451
0	5039	413515.629983693391	2204.2036668397
0	5044	413839.813873032138	1687.6665517688
0	5057	414903.545799851447	2166.0903706681
0	5062	415352.485644025758	1836.8556603324
0	5071	415999.123000726133	1726.0791904293
0	5080	416665.732778655395	1762.1869788039
0	5091	417350.668159453227	1684.7885040566
0	5100	417975.964578520535	1746.4839646127
0	5109	419006.746809370845	2273.6660932191
0	5120	419638.282525213464	2181.254831655
0	5127	420284.28376293744	2072.9228261858
0	5138	421173.879464250087	2143.3249932714
0	5145	421785.477976966678	2147.1954517532
0	5156	422575.823132833495	2257.6808926184
0	5165	423238.569301972195	2064.6898377221
0	5172	423885.373661387741	2071.261170879
0	5183	424874.370107799798	2298.5469749663
0	5190	425467.413551313832	2228.8442493416
0	5197	426073.819939233393	2076.6502452549
0	5206	426688.603504048691	1814.2333962489
0	5219	427669.316375255614	1979.1228774469
0	5224	428270.970633393183	1892.7611476276
0	5233	428682.808378106012	1709.408969013
0	5246	430088.914729608253	2419.5983543526
0	5255	430829.359800182313	2318.0772992782
0	5262	431360.152038093686	2139.3239187542
0	5269	431734.53663107942	1645.6219014712
0	5282	432577.363169705526	1748.0033695232
0	5287	433219.779299246178	1633.0094767269
0	5300	433967.373065929891	1874.8252120335
0	5309	434691.754987137423	2114.3918174319
0	5314	435122.554846806483	1653.9801896084
0	5327	436313.724376587228	2346.3513106573
0	5334	436949.244433315502	2257.4894461781
0	5341	437252.211956447022	1719.3308448885
0	5354	438458.69984845634	2144.9754718691
0	5359	438789.87329634841	1636.4935642574
0	5368	439857.942976802619	2221.6642401181
0	5381	440896.019571740212	2437.3197232839
0	5390	441756.376752862739	2410.1039236877
0	5397	442533.981557842376	2389.3781935796
0	5404	442927.501961868288	2031.4823901281
0	5415	443932.688825111868	2176.3120722491
0	5422	444473.197645135256	1865.6273715198
0	5431	445576.248826179685	2266.8712838553
0	5442	446575.937986001404	2552.3550957441
0	5451	447210.390946269067	2313.181840349
0	5460	448070.523529825764	2285.9174190089
0	5469	448733.74977107163	2144.7644821834
0	5476	449164.89779292609	1683.9753437787
0	5485	449872.305512940544	1693.8630112913
0	5494	450751.800391450557	1825.7411824074
0	5507	452119.675819063592	2365.6523285899
0	5516	452854.05733524825	2411.6465577856
0	5523	453428.403197927434	2105.2478791215
0	5532	453945.251759234849	1825.5759401713
0	5539	454595.921993767876	1741.8646585196
0	5552	455779.765449184957	2320.1421137899
0	5561	456668.395899888161	2461.2232369836
0	5566	457239.878775598514	2195.1340913773
0	5575	457826.291288109529	2046.5258389246
0	5584	458720.011427672613	2051.6155277845
0	5595	459427.643058775025	1903.938474739
0	5604	460365.579562587697	2289.96209451
0	5615	461395.940875774282	2448.1960439589
0	5620	461850.70067541677	2057.3227157816
0	5629	462289.355602255124	1673.1961013284
0	5638	463349.049621820482	1953.1087460462
0	5647	463977.74238623682	1820.621032035
0	5656	464660.342084895853	1755.1524749491
0	5665	465383.559418190304	1726.1361397337
0	5678	466495.938003296066	2251.4473044779
0	5683	466922.832014830816	1899.9307076912
0	5692	467756.369166774709	1882.2638698854
0	5705	468865.627037733827	2369.6890344378
0	5714	469590.603146189858	2251.0530366562
0	5719	469941.499834740569	1933.6990572978
0	5732	470923.711925977875	2058.084888244
0	5739	471459.150325600092	1868.5471794102
0	5746	471816.425255080719	1653.7147544324
0	5759	473135.216469923068	2211.5045439452
0	5768	473839.832030190189	2080.0691942219
0	5775	474238.620900828425	1654.9486657139
0	5786	475329.234140133519	2194.0176702105
0	5795	476125.330275809426	2285.4982456192
0	5804	476617.779931286384	2178.1040215865
0	5809	477016.711410507594	1687.4772703741
0	5818	477919.271074701135	1793.9407988917
0	5829	479137.642011372407	2519.862080086
0	5836	479614.661249052768	2120.4822989646
0	5845	480242.534228414332	1868.8689170871
0	5856	481092.335039796343	1821.9841781538
0	5863	481702.034334093368	1813.9410818461
0	5872	482286.15549174141	1681.7661825567
0	5883	483223.450782755425	2019.9257419445
0	5890	483563.621132355219	1563.3007486817
0	5901	484795.928410347587	2010.8499623369
0	5908	485294.686671299896	1842.7375548519
0	5917	486172.539491532407	1953.9595138282
0	5928	487154.293321771584	2057.2475640569
0	5939	488202.28293361146	2447.9635984171
0	5948	489022.956420946904	2454.2146737222
0	5953	489333.315347414502	2015.0612485595
0	5966	490479.035901417994	2276.7529678065
0	5975	491347.760457079896	2324.804036133
0	5980	491735.083639528641	2083.9938037097
0	5989	492472.264158306682	1993.2282568887
0	5998	493256.724376045206	1908.9639189653
0	6007	494279.510129336306	2173.2405618299
0	6020	495011.502423277163	2080.2178177983
0	6027	495459.330704715141	1820.5511778127
0	6036	496454.037315817588	2080.151351681
0	6045	497025.82764001567	2014.3252167385
0	6052	497543.245776789301	1734.8491975106
0	6061	498361.933442764023	1873.1943968218
0	6074	499294.065105076918	1930.8629819658
0	6083	500190.427166875491	2213.9584904071
0	6092	500989.841725537593	2481.3801638782
0	6097	501338.508372288237	2044.4432672113
0	6108	502297.828843770589	2107.4016768951
0	6119	503053.474326292093	2063.6326007545
0	6128	503872.334621055092	2118.4060973581
0	6137	504754.994809767272	2266.8327930383
0	6146	505199.020110257011	2145.5457839649
0	6155	505996.378460805904	2124.0438397508
0	6164	506735.933153796982	1980.9383440297
0	6173	507539.557637879666	2340.5375276227
0	6178	508116.111245099496	2119.7327842936
0	6191	509139.449448790442	2403.5162949935
0	6198	509704.934771312442	2165.3771334328
0	6207	510323.901005834382	2069.1485332791
0	6216	510963.239145744633	1823.7896969542
0	6227	511852.859876118642	2053.7992539816
0	6234	512333.324512699661	1783.1343293656
0	6241	513247.733700927389	2142.9273197427
0	6254	514172.225078987	2319.3652028684
0	6259	514638.794954493684	1927.8177221306
0	6272	515511.036435188768	2191.9789012056
0	6277	515841.73573125158	1669.5106522646
0	6286	516569.510688912166	1619.7529516183
0	6299	517735.048262542157	2224.0118273534
0	6308	518212.955002812712	1968.2046888862
0	6313	518734.641587734266	1708.2947303541
0	6324	519585.129727609499	1850.0814650673
0	6335	520447.120180679529	2234.1651778668
0	6344	521325.995600502982	2280.9845245443
0	6349	521673.496054764881	1997.2658665851
0	6360	522645.734450966164	2198.6142702866
0	6367	522997.407778864771	1671.4121783618
0	6376	523947.719351341991	1920.4092258587
0	6385	524747.681083157702	1973.4332464635
0	6396	525705.108586745381	2178.9824008942
0	6405	526267.570060305342	2041.1689375062
0	6412	526682.029025210112	1703.5310572945
0	6421	527752.35759224747	1920.6673000474
0	6430	528374.288607202514	1923.4582236037
0	6441	529253.208179259717	2018.4101154562
0	6452	530127.532948181077	2077.2850776091
0	6457	530453.682483919009	1558.6897867732
0	6466	531547.518928628459	2122.6205953863
0	6477	532553.711197665006	2426.1782494839
0	6484	532874.983238847971	1893.9034681767
0	6497	533782.412196183622	2044.5153992157
0	6504	534410.087287612304	1813.308930723
0	6511	534964.609484793663	1968.1868600193
0	6520	535959.270764887378	2176.8585687038
0	6533	537070.321132801518	2516.5817019995
0	6542	537943.037533806682	2521.1614583619
0	6549	538691.955465171531	2499.5604825206
0	6558	539590.533663053111	2520.2125302516
0	6565	539931.32588602607	1988.2883522194
0	6574	540741.414842801215	1921.0543673951
0	6583	541551.86546919872	1947.8904106189
0	6594	542343.66307253954	2012.5751450658
0	6603	542799.811184266629	1694.5718946867
0	6610	543203.601635014685	1471.3470391463
0	6621	544118.558034114587	1667.0961580239
0	6628	544905.64439515588	1950.2332729753
0	6639	545987.265614653054	2437.7111559268
0	6650	546831.436931295369	2383.1041887403
0	6655	547153.221532423098	1808.263754379
0	6666	548194.186772313018	2115.6113442499
0	6673	548738.939989032273	1907.5030577369
0	6684	549806.955856410836	2225.8167284075
0	6695	550376.680197240834	2075.5704679526
0	6700	550824.985300842722	1669.7665526066
0	6711	551975.98832566296	2014.3020259682
0	6718	552414.864238025669	2038.1840407848
0	6727	553317.532777693171	2177.9354272876
0	6736	553821.620636293714	1817.7096123341
0	6747	554611.887248558973	1790.5085016042
0	6754	555190.244741365363	1656.9246639032
0	6767	556348.734276322697	2154.7960946336
0	6774	557034.972538473134	2086.2584933639
0	6785	557988.988398900305	2478.3768718131
0	6792	558504.529623035391	2155.7953467127
0	6799	559141.447914624636	1934.1167018283
0	6808	559854.454598296483	1865.4661993962
0	6817	560437.596680643087	1670.9253380075
0	6830	561397.279607690921	2014.0198648442
0	6839	562153.461432969248	1947.3970925901
0	6848	562917.324362229606	2155.1752125844
0	6853	563333.663898473656	1936.3842907827
0	6864	564427.525555249354	2274.0641222801
0	6871	565138.388462690687	2221.0641004611
0	6880	565533.05531507363	1967.5383222755
0	6893	566407.619487913375	1962.7051879652
0	6900	567137.438273336788	1894.075418869
0	6907	567604.462412651678	1921.5168799739
0	6916	568152.404676005294	1744.7851880919
0	6927	569307.133909827149	2037.5875461381
0	6934	569828.34008471114	1955.6605713442
0	6945	570700.905456114611	2145.2252817806
0	6954	571474.083749391189	2108.667298872
0	6963	572253.241978911733	2350.9686665609
0	6974	572920.894373673996	2159.2172357719
0	6979	573493.228002917072	1875.6447162945
0	6992	574322.809071047282	1930.1669554319
0	6999	575086.816324666193	2165.9219509922
0	7010	575919.899365352517	2274.397333106
0	7019	576729.724226519516	2406.9151554722
0	7026	577498.054312169602	2405.3243618924
0	7037	578176.751354942148	2256.8519895896
0	7046	579056.668523373132	2326.9442968536
0	7055	579900.289881555413	2278.9388474543
0	7062	580399.922580504839	2223.1712255627
0	7073	581365.331741748427	2308.6632183753
0	7082	582263.385180244272	2363.0952986889
0	7087	582577.567874360879	2066.7445574887
0	7100	583805.672950996136	2440.3412092477
0	7109	584667.23077967768	2403.8455994334
0	7116	585536.745938519066	2473.8215213176
0	7123	585840.824737446433	2035.1517864503
0	7136	587088.781780097684	2421.55100042
0	7145	587844.177428120798	2292.2446381766
0	7152	588346.642572199977	2022.8671006858
0	7161	589327.706778142653	2238.924998045
0	7172	590159.225809481047	2315.0483813602
0	7177	590504.830637108587	1932.4056783691
0	7190	591837.878133030661	2492.220768705
0	7195	592386.933171423205	2227.7073619422
0	7204	592997.865009633877	2051.8011482432
0	7217	594125.118239829369	2287.2401067987
0	7224	594875.369020784326	2229.7739570495
0	7231	595304.645465500705	1965.8092926722
0	7240	596431.505532888748	2306.3872930594
0	7253	597406.51320931507	2437.8271874506
0	7262	597886.829880997592	2206.794434879
0	7269	598469.674125267246	1931.7158742808
0	7278	599122.883800696635	1716.3705913816
0	7287	599748.074741894433	1861.2448608968
0	7294	600573.483218578676	1976.9662328996
0	7303	601191.059248941074	1944.299538061
0	7316	602302.441132022122	2395.557699725
0	7323	602975.069862976724	2264.7231586743
0	7330	603299.212678056264	1810.2886780165
0	7341	604133.172405883724	1830.7312738616
1	3174	260467.821954377019	351
1	3185	261289.764749631309	352
1	3192	261906.752871489176	353
1	3199	262462.673766771355	354
1	3208	263134.932360984408	355
1	3217	264057.43952142077	356
1	3230	265088.928985688858	357
1	3239	265948.417327087395	358
1	3246	266561.168826743983	359
1	3257	267359.193020034604	360
1	3262	267676.990730920829	361
1	3273	268759.795006178342	362
1	3280	269108.416797034465	363
1	3289	269980.335645005128	364
1	3302	270898.565944097958	365
1	3309	271240.813701320461	366
1	3316	272010.588468471563	367
1	3325	272768.554973602317	368
1	3334	273381.021909322611	369
1	3345	274016.9345345814	370
1	3352	274446.425465634115	371
1	3365	275651.967022055782	372
1	3374	276366.500414488859	373
1	3379	276714.491840964205	374
1	3388	277583.062127977631	375
1	3397	278154.530265089146	376
1	3406	279281.062184041388	377
1	3417	280301.322128064952	378
1	3424	280907.864178344629	379
1	3433	281709.285410726465	380
1	3442	282303.511041356272	381
1	3451	282873.519490147031	382
1	3460	283308.001812966562	383
1	3473	284512.405069638065	384
1	3478	284815.752688469387	385
1	3487	285666.301126359052	386
1	3498	286381.070101540557	387
1	3505	286988.09100687506	388
1	3516	287723.363036150134	389
1	3523	288397.302313288695	390
1	3532	288958.42040386053	391
1	3541	289616.818187059856	392
1	3550	290265.714007616065	393
1	3561	291468.350553559161	394
1	3568	291874.628822179533	395
1	3579	292878.235714836068	396
1	3590	293987.268966995202	397
1	3595	294694.932763790734	398
1	3606	295162.859618570678	399
1	3613	295892.421129997842	400
1	3626	296663.716619415232	401
1	3633	297088.888993626484	402
1	3642	297548.902677325555	403
1	3651	298353.005231637531	404
1	3662	299106.577415764355	405
1	3669	299960.841131955408	406
1	3678	300477.2982421797	407
1	3689	301366.162698715948	408
1	3694	301786.432894086488	409
1	3707	302967.471735784807	410
1	3712	303431.777853146218	411
1	3725	304565.120762866013	412
1	3734	305338.192982040368	413
1	3739	305803.055660845734	414
1	3752	307023.736524162836	415
1	3761	307906.542932242177	416
1	3770	308665.380521491192	417
1	3775	308969.232727121584	418
1	3784	309600.260790484048	419
1	3793	310186.690859450049	420
1	3804	311013.226180197693	421
1	3811	311320.581252314172	422
1	3822	312354.884268622867	423
1	3831	313238.991973735415	424
1	3842	314144.033221760787	425
1	3849	314836.203957349084	426
1	3860	315730.394628318049	427
1	3869	316599.148299777903	428
1	3876	317030.147292790957	429
1	3883	317447.855856455885	430
1	3892	318422.218575188913	431
1	3903	319415.949997259327	432
1	3910	320303.597170254238	433
1	3921	320983.75483537095	434
1	3932	321973.697885731257	435
1	3937	322444.3325287197	436
1	3948	323000.365152256585	437
1	3957	323670.85697008299	438
1	3966	324504.556329455248	439
1	3977	325659.024978010006	440
1	3986	326429.950520396255	441
1	3991	326904.217603895836	442
1	4000	327374.921758705773	443
1	4009	328599.747382197552	444
1	4022	329249.717296706536	445
1	4027	329651.376971555897	446
1	4038	330577.308907359862	447
1	4049	331411.437504552328	448
1	4058	332166.220189863839	449
1	4063	332571.842018142366	450
1	4074	333737.206963961967	451
1	4083	334338.036271696933	452
1	4092	335236.914039636054	453
1	4099	335800.444737961539	454
1	4108	336391.6193563957	455
1	4117	337158.967595687159	456
1	4126	337856.473274901533	457
1	4137	338813.174415472918	458
1	4144	339313.0153317936	459
1	4155	340328.106913715624	460
1	4162	340667.645055335038	461
1	4171	341676.891918433854	462
1	4180	342546.338149113604	463
1	4191	343418.836743850284	464
1	4198	344097.345757763856	465
1	4211	345176.459155418003	466
1	4220	345981.954409182096	467
1	4225	346477.691604243616	468
1	4236	347150.614038901428	469
1	4245	347877.385902637641	470
1	4254	348489.510621177058	471
1	4263	348965.813172748338	472
1	4270	349755.780582921605	473
1	4283	350608.24052849787	474
1	4290	351251.089607924248	475
1	4297	351758.217789279322	476
1	4306	352627.516442863296	477
1	4315	353338.715556683044	478
1	4324	354231.656115967806	479
1	4335	355038.374811736892	480
1	4342	355879.354566475402	481
1	4351	356224.828959675531	482
1	4360	356995.732407085624	483
1	4373	358217.299357568871	484
1	4378	358538.680469943236	485
1	4389	359759.308822033953	486
1	4396	360068.592259241294	487
1	4405	361161.422909656566	488
1	4418	362381.982572469887	489
1	4423	362868.357081385356	490
1	4436	364073.609135253381	491
1	4443	364754.585724324014	492
1	4454	365521.782396733787	493
1	4461	366395.542725222211	494
1	4470	366880.863066762712	495
1	4477	367440.214992966529	496
1	4490	368361.612064624231	497
1	4495	368944.765753671553	498
1	4508	369751.783612556782	499
1	4515	370203.27447946186	500
1	4526	370988.624847354394	501
1	4533	371414.706451166448	502
1	4536	371745.352727500749	503
1	4549	372840.479683131006	504
1	4558	373708.172855665933	505
1	4569	374627.260734234031	506
1	4576	374997.595030674737	507
1	4587	375982.657782873165	508
1	4596	377017.269084602621	509
1	4603	377358.412228245315	510
1	4616	378341.988287586746	511
1	4623	378913.284328719628	512
1	4634	379834.155825292719	513
1	4641	380335.387725569335	514
1	4648	380907.044596318183	515
1	4659	381545.954661956085	516
1	4668	382380.9273190331	517
1	4679	383642.826029146118	518
1	4684	383953.297295607654	519
1	4697	385284.236115356936	520
1	4702	385688.663762435346	521
1	4711	386552.951408224209	522
1	4724	387714.562529185816	523
1	4731	388230.857985187351	524
1	4738	388775.751986587449	525
1	4749	389401.795254880592	526
1	4758	390180.025573074846	527
1	4769	391149.64881967756	528
1	4776	391716.490267636283	529
1	4783	392653.37989758703	530
1	4794	393091.620832309156	531
1	4805	393967.965273326292	532
1	4812	394362.967553269147	533
1	4819	395185.20662896338	534
1	4828	395858.791668852821	535
1	4837	396503.673125384404	536
1	4846	397534.870211407571	537
1	4857	398174.146463815152	538
1	4866	399124.224745854764	539
1	4875	399712.747673224686	540
1	4882	400402.940231049462	541
1	4895	401273.605923866881	542
1	4902	402023.993961559637	543
1	4911	402609.155907388805	544
1	4918	403174.416103027789	545
1	4931	404358.519650436967	546
1	4938	404915.862654335826	547
1	4945	405507.050966704293	548
1	4958	406619.088067067816	549
1	4963	406940.971641428798	550
1	4974	407998.513250704884	551
1	4983	408810.655107256054	552
1	4990	409547.347512608423	553
1	4999	410407.940002391144	554
1	5008	410999.673505174025	555
1	5021	412152.147321263358	556
1	5030	412737.455429183349	557
1	5039	413515.629983693391	558
1	5044	413839.813873032138	559
1	5057	414903.545799851447	560
1	5062	415352.485644025758	561
1	5071	415999.123000726133	562
1	5080	416665.732778655395	563
1	5091	417350.668159453227	564
1	5100	417975.964578520535	565
1	5109	419006.746809370845	566
1	5120	419638.282525213464	567
1	5127	420284.28376293744	568
1	5138	421173.879464250087	569
1	5145	421785.477976966678	570
1	5156	422575.823132833495	571
1	5165	423238.569301972195	572
1	5172	423885.373661387741	573
1	5183	424874.370107799798	574
1	5190	425467.413551313832	575
1	5197	426073.819939233393	576
1	5206	426688.603504048691	577
1	5219	427669.316375255614	578
1	5224	428270.970633393183	579
1	5233	428682.808378106012	580
1	5246	430088.914729608253	581
1	5255	430829.359800182313	582
1	5262	431360.152038093686	583
1	5269	431734.53663107942	584
1	5282	432577.363169705526	585
1	5287	433219.779299246178	586
1	5300	433967.373065929891	587
1	5309	434691.754987137423	588
1	5314	435122.554846806483	589
1	5327	436313.724376587228	590
1	5334	436949.244433315502	591
1	5341	437252.211956447022	592
1	5354	438458.69984845634	593
1	5359	438789.87329634841	594
1	5368	439857.942976802619	595
1	5381	440896.019571740212	596
1	5390	441756.376752862739	597
1	5397	442533.981557842376	598
1	5404	442927.501961868288	599
1	5415	443932.688825111868	600
1	5422	444473.197645135256	601
1	5431	445576.248826179685	602
1	5442	446575.937986001404	603
1	5451	447210.390946269067	604
1	5460	448070.523529825764	605
1	5469	448733.74977107163	606
1	5476	449164.89779292609	607
1	5485	449872.305512940544	608
1	5494	450751.800391450557	609
1	5507	452119.675819063592	610
1	5516	452854.05733524825	611
1	5523	453428.403197927434	612
1	5532	453945.251759234849	613
1	5539	454595.921993767876	614
1	5552	455779.765449184957	615
1	5561	456668.395899888161	616
1	5566	457239.878775598514	617
1	5575	457826.291288109529	618
1	5584	458720.011427672613	619
1	5595	459427.643058775025	620
1	5604	460365.579562587697	621
1	5615	461395.940875774282	622
1	5620	461850.70067541677	623
1	5629	462289.355602255124	624
1	5638	463349.049621820482	625
1	5647	463977.74238623682	626
1	5656	464660.342084895853	627
1	5665	465383.559418190304	628
1	5678	466495.938003296066	629
1	5683	466922.832014830816	630
1	5692	467756.369166774709	631
1	5705	468865.627037733827	632
1	5714	469590.603146189858	633
1	5719	469941.499834740569	634
1	5732	470923.711925977875	635
1	5739	471459.150325600092	636
1	5746	471816.425255080719	637
1	5759	473135.216469923068	638
1	5768	473839.832030190189	639
1	5775	474238.620900828425	640
1	5786	475329.234140133519	641
1	5795	476125.330275809426	642
1	5804	476617.779931286384	643
1	5809	477016.711410507594	644
1	5818	477919.271074701135	645
1	5829	479137.642011372407	646
1	5836	479614.661249052768	647
1	5845	480242.534228414332	648
1	5856	481092.335039796343	649
1	5863	481702.034334093368	650
1	5872	482286.15549174141	651
1	5883	483223.450782755425	652
1	5890	483563.621132355219	653
1	5901	484795.928410347587	654
1	5908	485294.686671299896	655
1	5917	486172.539491532407	656
1	5928	487154.293321771584	657
1	5939	488202.28293361146	658
1	5948	489022.956420946904	659
1	5953	489333.315347414502	660
1	5966	490479.035901417994	661
1	5975	491347.760457079896	662
1	5980	491735.083639528641	663
1	5989	492472.264158306682	664
1	5998	493256.724376045206	665
1	6007	494279.510129336306	666
1	6020	495011.502423277163	667
1	6027	495459.330704715141	668
1	6036	496454.037315817588	669
1	6045	497025.82764001567	670
1	6052	497543.245776789301	671
1	6061	498361.933442764023	672
1	6074	499294.065105076918	673
1	6083	500190.427166875491	674
1	6092	500989.841725537593	675
1	6097	501338.508372288237	676
1	6108	502297.828843770589	677
1	6119	503053.474326292093	678
1	6128	503872.334621055092	679
1	6137	504754.994809767272	680
1	6146	505199.020110257011	681
1	6155	505996.378460805904	682
1	6164	506735.933153796982	683
1	6173	507539.557637879666	684
1	6178	508116.111245099496	685
1	6191	509139.449448790442	686
1	6198	509704.934771312442	687
1	6207	510323.901005834382	688
1	6216	510963.239145744633	689
1	6227	511852.859876118642	690
1	6234	512333.324512699661	691
1	6241	513247.733700927389	692
1	6254	514172.225078987	693
1	6259	514638.794954493684	694
1	6272	515511.036435188768	695
1	6277	515841.73573125158	696
1	6286	516569.510688912166	697
1	6299	517735.048262542157	698
1	6308	518212.955002812712	699
1	6313	518734.641587734266	700
1	6324	519585.129727609499	701
1	6335	520447.120180679529	702
1	6344	521325.995600502982	703
1	6349	521673.496054764881	704
1	6360	522645.734450966164	705
1	6367	522997.407778864771	706
1	6376	523947.719351341991	707
1	6385	524747.681083157702	708
1	6396	525705.108586745381	709
1	6405	526267.570060305342	710
1	6412	526682.029025210112	711
1	6421	527752.35759224747	712
1	6430	528374.288607202514	713
1	6441	529253.208179259717	714
1	6452	530127.532948181077	715
1	6457	530453.682483919009	716
1	6466	531547.518928628459	717
1	6477	532553.711197665006	718
1	6484	532874.983238847971	719
1	6497	533782.412196183622	720
1	6504	534410.087287612304	721
1	6511	534964.609484793663	722
1	6520	535959.270764887378	723
1	6533	537070.321132801518	724
1	6542	537943.037533806682	725
1	6549	538691.955465171531	726
1	6558	539590.533663053111	727
1	6565	539931.32588602607	728
1	6574	540741.414842801215	729
1	6583	541551.86546919872	730
1	6594	542343.66307253954	731
1	6603	542799.811184266629	732
1	6610	543203.601635014685	733
1	6621	544118.558034114587	734
1	6628	544905.64439515588	735
1	6639	545987.265614653054	736
1	6650	546831.436931295369	737
1	6655	547153.221532423098	738
1	6666	548194.186772313018	739
1	6673	548738.939989032273	740
1	6684	549806.955856410836	741
1	6695	550376.680197240834	742
1	6700	550824.985300842722	743
1	6711	551975.98832566296	744
1	6718	552414.864238025669	745
1	6727	553317.532777693171	746
1	6736	553821.620636293714	747
1	6747	554611.887248558973	748
1	6754	555190.244741365363	749
1	6767	556348.734276322697	750
1	6774	557034.972538473134	751
1	6785	557988.988398900305	752
1	6792	558504.529623035391	753
1	6799	559141.447914624636	754
1	6808	559854.454598296483	755
1	6817	560437.596680643087	756
1	6830	561397.279607690921	757
1	6839	562153.461432969248	758
1	6848	562917.324362229606	759
1	6853	563333.663898473656	760
1	6864	564427.525555249354	761
1	6871	565138.388462690687	762
1	6880	565533.05531507363	763
1	6893	566407.619487913375	764
1	6900	567137.438273336788	765
1	6907	567604.462412651678	766
1	6916	568152.404676005294	767
1	6927	569307.133909827149	768
1	6934	569828.34008471114	769
1	6945	570700.905456114611	770
1	6954	571474.083749391189	771
1	6963	572253.241978911733	772
1	6974	572920.894373673996	773
1	6979	573493.228002917072	774
1	6992	574322.809071047282	775
1	6999	575086.816324666193	776
1	7010	575919.899365352517	777
1	7019	576729.724226519516	778
1	7026	577498.054312169602	779
1	7037	578176.751354942148	780
1	7046	579056.668523373132	781
1	7055	579900.289881555413	782
1	7062	580399.922580504839	783
1	7073	581365.331741748427	784
1	7082	582263.385180244272	785
1	7087	582577.567874360879	786
1	7100	583805.672950996136	787
1	7109	584667.23077967768	788
1	7116	585536.745938519066	789
1	7123	585840.824737446433	790
1	7136	587088.781780097684	791
1	7145	587844.177428120798	792
1	7152	588346.642572199977	793
1	7161	589327.706778142653	794
1	7172	590159.225809481047	795
1	7177	590504.830637108587	796
1	7190	591837.878133030661	797
1	7195	592386.933171423205	798
1	7204	592997.865009633877	799
1	7217	594125.118239829369	800
1	7224	594875.369020784326	801
1	7231	595304.645465500705	802
1	7240	596431.505532888748	803
1	7253	597406.51320931507	804
1	7262	597886.829880997592	805
1	7269	598469.674125267246	806
1	7278	599122.883800696635	807
1	7287	599748.074741894433	808
1	7294	600573.483218578676	809
1	7303	601191.059248941074	810
1	7316	602302.441132022122	811
1	7323	602975.069862976724	812
1	7330	603299.212678056264	813
1	7341	604133.172405883724	814

