version 2
run Pipelined_3Teachers-18-20190105-10:57:21-14228
attr configname Pipelined_3Teachers
attr datetime 20190105-10:57:21
attr experiment Pipelined_3Teachers
attr inifile ../simulations/omnetpp.ini
attr iterationvars "$0=\"uniform\""
attr iterationvarsf uniform-
attr measurement "$0=\"uniform\""
attr network PipelinedExamSession
attr processid 14228
attr repetition 18
attr replication #18
attr resultdir results
attr runnumber 18
attr seedset 18
param **.teachersNumber 3
param **.answerTimeDistribution "\"uniform\""
param **.minUniform 300
param **.maxUniform 900
param **.scaleLognormal 6.2854
param **.shapeLognormal 0.4724

vector 0 PipelinedExamSession examinationTime:vector ETV
attr source examFinished
vector 1 PipelinedExamSession studentID:vector ETV
attr source student
0	3190	260240.674974024315	1932.12788729
0	3201	261214.395928150063	2054.0931779891
0	3208	261641.268109018003	1899.9727773014
0	3217	262401.971167512258	1792.768894136
0	3226	263164.182678842937	1709.9088076036
0	3235	263856.410368625096	1506.9483093917
0	3246	265103.033625148258	2131.2667277176
0	3257	266235.175987612477	2434.6031884197
0	3266	267104.467570083237	2588.4362418205
0	3275	267935.210912162459	2569.2132701632
0	3284	268736.401536176002	2501.2255485635
0	3293	269209.743184922284	2105.275614839
0	3300	269821.754400897792	1886.5434887353
0	3307	270335.492382198593	1599.0908460226
0	3318	271421.977150160841	2212.2339652386
0	3329	272021.796179981924	2186.2055204809
0	3338	272771.350597310833	2085.1339994464
0	3343	273112.15108134786	1665.0273998268
0	3354	274024.585963832237	2002.7897838503
0	3365	274717.28969961407	1945.9391023032
0	3372	275374.61628271269	2014.6337691229
0	3379	275848.117805505193	1789.6770888939
0	3390	276664.658017130591	1947.3683175165
0	3397	277175.302954902895	1765.5675394926
0	3406	277713.001641165487	1543.8923827372
0	3417	278880.938326008641	2170.7338878885
0	3424	279210.045295301848	1660.8227748424
0	3433	280012.603028956824	1750.7524895947
0	3446	281169.39105195927	2059.486739058
0	3451	281497.641772683733	1682.687494671
0	3460	282377.167154336372	1783.4260369185
0	3473	283373.137635877379	2203.7465839181
0	3478	283720.645969826751	1732.4610617012
0	3491	284670.462945476198	1927.7632562444
0	3498	285450.60446779246	2077.4668319151
0	3505	285795.563870575303	1713.5475652758
0	3518	286771.894955495397	2101.4320100192
0	3527	287512.614715704719	2013.510983577
0	3536	288286.920978315199	1924.4781158399
0	3543	288907.179870363349	2135.284914868
0	3550	289298.377585317964	1785.7628696132
0	3561	290261.38163292783	1974.4606546126
0	3572	291078.070154087643	2116.5570884943
0	3577	291573.202821984912	1853.0527486
0	3590	292519.984207861151	2189.0449869912
0	3597	293341.612167935844	2263.5420138482
0	3606	293844.591987552147	2093.1696354412
0	3615	294523.813161626484	2003.8289537653
0	3626	295497.846502298515	2155.5271538906
0	3635	296293.110765656482	2388.1142774597
0	3642	296997.212320379939	2363.771951152
0	3649	297486.828925553735	1988.9824232552
0	3658	298372.145008156102	2079.0342424996
0	3671	299324.088929593589	2320.8936426323
0	3680	300187.263907492187	2338.4884477593
0	3689	300964.036280382451	2368.9782698639
0	3694	301314.445998938781	1990.3570693452
0	3703	301993.054497381699	1805.7905898895
0	3712	302678.085928084356	1714.0496477019
0	3721	303613.450477039468	1753.9863152895
0	3734	304733.614184707431	2134.4309447799
0	3741	305571.394293336226	2139.6622078959
0	3748	306027.079271106078	2129.2037492618
0	3761	307206.292138388409	2472.677953681
0	3768	308010.366645315691	2422.5474875886
0	3779	308899.963208846777	2475.0123139936
0	3784	309208.504846785247	2002.2127083968
0	3795	310360.143166780501	2316.1541660316
0	3806	311140.023927530303	2240.0607186835
0	3815	311828.211023518845	2137.1114342473
0	3824	312618.326672678843	2177.5641691871
0	3833	313480.966382380605	2340.9424548503
0	3842	314343.503289716348	2515.2922661975
0	3847	315025.880621792778	2407.5539491139
0	3856	315601.904924260482	2120.9385418799
0	3865	316144.827261753411	1801.3239720371
0	3876	317030.373072763936	1802.60551502
0	3887	318166.576172551171	2353.2433324959
0	3894	318699.803083576293	2020.474487124
0	3905	319674.885421246321	2380.0268628169
0	3910	320147.420809138597	1980.8446365874
0	3923	321145.793790416823	2345.8933856338
0	3930	321764.252267824517	2089.3668465782
0	3939	322427.342116925897	1926.8723177724
0	3946	323073.337356699662	1927.5435662828
0	3955	324110.136875649945	2222.4720157217
0	3964	325150.898224348234	2375.1197959296
0	3973	325804.41489648077	2150.646196492
0	3986	326641.723515512453	2233.8830829598
0	3995	327054.756841482626	1850.8644295391
0	4004	327837.099920120122	1844.7027468123
0	4009	328209.079065872388	1567.3555503599
0	4018	328859.3899293803	1804.6330878977
0	4027	329605.391691159489	1768.2917710394
0	4038	330619.389221258494	1998.896120768
0	4047	331377.109172428059	2220.8638960496
0	4058	332260.874569695475	2291.3634408731
0	4067	332955.435954267191	2203.9247436449
0	4072	333333.540390478479	1874.2215130012
0	4081	333736.610131803932	1475.7355621085
0	4094	335117.141435807603	2161.7054815404
0	4099	335840.139439702066	2343.9362250734
0	4108	336539.81571486223	2276.235044701
0	4117	337403.49704353142	2286.3556077238
0	4128	338400.458997068959	2400.0968372449
0	4139	339085.100884549351	2244.8177761864
0	4146	339462.977881031142	1882.921408955
0	4155	340407.906979322465	1982.504267944
0	4162	341250.169608788596	2165.0687242392
0	4175	342173.905997397409	2303.432914149
0	4180	342680.612169764967	2086.4571788348
0	4191	343490.410297969388	2018.4696364682
0	4200	344385.033009946378	2211.127012549
0	4207	344782.944085774975	1797.9572826996
0	4216	345420.424195937844	1587.5205073971
0	4225	346312.526578735592	1752.8895908967
0	4236	347120.314669003742	2152.7139826678
0	4245	347772.66330351125	1961.7488874123
0	4252	348233.421058533746	1806.4627708867
0	4263	349326.524768862905	2088.6284492444
0	4272	350289.207730488884	2293.2271742262
0	4279	351078.924461687016	2195.4440667294
0	4288	351725.716297002541	2290.274656238
0	4297	352529.557594098182	2204.3886671774
0	4310	353278.498252434687	2063.053259952
0	4315	353711.047388054461	1831.9306600839
0	4328	354626.167516736345	1900.4381893203
0	4335	355481.475603673638	2202.977351239
0	4342	355845.626224391193	1780.880679097
0	4353	357053.964999876948	2427.7974831406
0	4360	357664.114043209733	2148.0795151088
0	4371	358506.25555990267	2122.6649538148
0	4378	359029.156112764063	1761.6254220251
0	4389	359998.434983566436	1890.6090416014
0	4400	360583.532010018858	1864.5240477752
0	4405	361080.281790671903	1948.2160780113
0	4418	362187.027420289847	2172.4271696527
0	4423	362520.36378909837	1936.8317790795
0	4432	363444.710682844776	2052.7879066765
0	4441	364218.70655352253	2031.6791332327
0	4450	364762.051540380376	1741.0468408372
0	4463	365929.6892773826	2162.3727869242
0	4470	366581.758863665196	2035.8330120798
0	4481	367478.023001644793	2199.8398165684
0	4488	368272.053371463004	2342.3640940804
0	4497	368737.800968997214	1955.6195051875
0	4508	369422.647385671768	1944.624384027
0	4515	370307.283669104833	1994.2391876131
0	4524	370874.751431448419	1901.478495542
0	4531	371460.647984175045	2038.0005985033
0	4542	372174.410877702791	1852.6549656875
0	4551	372927.213280135799	1771.2875069585
0	4558	373514.602694800157	1841.6271022987
0	4567	374145.998656237531	1837.6809859648
0	4576	374699.402982322533	1608.8883874007
0	4589	375921.245233342085	2158.5512565449
0	4596	376567.447622353245	1977.233798895
0	4603	377409.11997109655	2249.8962728307
0	4616	378358.942335192148	2437.6971018501
0	4621	379105.269200261716	2433.4488479421
0	4632	379776.746620237861	2228.6837156396
0	4639	380280.802061827887	1921.8597266357
0	4648	381045.557852787931	1826.4380078763
0	4661	381904.384372383391	1815.9426635597
0	4668	382435.919474903529	1906.8202614784
0	4679	382969.248820049723	1892.6487745252
0	4688	383486.515275668388	1582.130903285
0	4697	384348.79278838638	1845.8440984134
0	4704	384934.525180980598	1965.2763609309
0	4715	385767.431436851656	2280.9161611833
0	4722	386165.826704632526	1817.0339162461
0	4729	386890.176529157942	1697.3654884379
0	4738	387360.156039800531	1592.7246029489
0	4747	388254.080734541675	2061.5213125013
0	4758	389283.785011712497	2275.9021009784
0	4765	389990.005647903344	2083.086212771
0	4774	390475.683246972075	1748.4008967876
0	4787	391539.864631276614	2213.2327500265
0	4792	392031.701476173512	1889.3126953393
0	4801	392844.377935538105	1897.9042602237
0	4812	393600.169965717978	2060.3053344414
0	4821	394280.368060106448	1893.0034596473
0	4832	395517.296691611446	2494.9394167867
0	4837	396036.616365658156	2287.0324637275
0	4848	397060.456102481149	2415.6229436863
0	4859	397933.964175637849	2416.6674840264
0	4864	398312.988981697746	1914.9269479327
0	4873	399248.540170630478	2058.7450773921
0	4884	400025.051559973547	2091.0873843357
0	4895	400614.552875608245	1945.7433228381
0	4904	401434.994126670102	2031.1680237763
0	4911	401906.203704373951	1794.7343188338
0	4922	402950.44049913999	2335.8876235317
0	4929	403550.386598333757	2115.3924716637
0	4938	404151.886671921279	2061.040843511
0	4947	404976.198978256475	2025.7584791165
0	4958	405783.581671491306	2210.9577787109
0	4967	406608.314580330666	2307.4726054911
0	4976	407466.66100267325	2273.8639884163
0	4981	407982.755726063665	2199.1740545724
0	4992	408942.960610566702	2334.646030236
0	5001	409442.868325067726	1976.2073223945
0	5010	410141.681444412139	1841.3874618709
0	5017	410572.444688715083	1626.0364119429
0	5026	411176.796173024965	1514.2405159771
0	5035	411697.943875612733	1435.1485313382
0	5044	412402.021547919181	1535.3815716226
0	5055	413487.48657521796	1911.3561612088
0	5064	414372.964412625921	2233.3724427503
0	5071	415064.939395152075	2112.2305861674
0	5080	415687.937614973677	2001.3703691773
0	5091	416715.517396945549	2244.0927322023
0	5098	417143.401371454863	1823.6144383438
0	5111	418139.89002266903	2196.2903394364
0	5118	418545.640209596647	1768.2769004256
0	5127	418958.681220654441	1702.8434531763
0	5136	420321.271375101102	2181.3813524321
0	5147	421199.954247381581	2551.9605652895
0	5152	421693.626599013848	2229.1164115537
0	5165	422371.990939043505	2025.0941097736
0	5172	422829.226768389387	1629.2725210078
0	5181	423498.602845100729	1672.3866274115
0	5190	424296.96952197705	1924.9785829335
0	5199	425087.29370646183	2141.1725634243
0	5206	425409.924943093253	1713.2113246713
0	5215	426639.590257080315	2243.6232647393
0	5224	427379.054016759662	2166.3723202888
0	5233	427914.87343925987	1855.5866640061
0	5242	428851.182052865668	1961.3948662765
0	5255	429633.167324680878	2023.0273467489
0	5262	430310.335819004147	1851.9851823337
0	5273	431145.21344834943	2039.0923426487
0	5282	431713.745713513388	2080.5783888325
0	5289	432174.323381250768	1685.4395615403
0	5298	432752.920205751478	1607.706757402
0	5309	433653.206494404047	1939.4607808907
0	5314	434030.725230183496	1797.3422446288
0	5323	434558.371346723332	1728.1520443037
0	5332	435420.213993312835	1767.0074989088
0	5341	435896.672640647784	1607.5521286111
0	5354	436943.615764053583	2099.3202970829
0	5359	437317.633985169276	1829.3966699392
0	5368	438299.758932692975	2071.1486083455
0	5377	438894.51821269472	1950.9024486411
0	5388	439782.087987754539	2062.9060561303
0	5395	440306.745501514569	1730.0885786768
0	5408	441528.052697517022	2333.699151082
0	5413	441870.191431324973	1866.463957401
0	5422	442442.059592669874	1641.2737444974
0	5431	443511.309073912024	1983.256376395
0	5440	444177.460853755518	1779.744734522
0	5449	444903.121675411283	1769.9079820421
0	5462	445799.056914215951	1785.2046560962
0	5471	446618.632314261093	2043.1971360929
0	5480	447330.042030662342	2270.8501211833
0	5487	447748.360829707279	1949.3039154913
0	5494	448601.392342010557	1982.7600277495
0	5503	449384.054762916684	2054.0127322543
0	5514	450259.671928826764	2040.9159490373
0	5523	450863.257898250639	1814.1091862228
0	5534	451651.039834320589	1707.616231218
0	5541	452326.590743288442	2027.1166544873
0	5550	452947.287809522866	2005.9092563577
0	5557	453592.054045060694	1941.0142107401
0	5566	454376.535932673185	1858.8293122128
0	5579	455615.053350152492	2424.6117715258
0	5588	456464.812293509066	2566.7774242815
0	5593	456939.429433224767	2214.2895892728
0	5602	457627.911754231945	2012.8584040795
0	5613	458880.242856871381	2415.4305633623
0	5624	459741.539256647274	2415.7561196946
0	5633	460521.553324721798	2334.9902519491
0	5642	461403.323586797386	2365.6157445163
0	5649	461784.541013510942	2043.0017568637
0	5656	462242.944041453346	1721.3907167315
0	5665	463043.134619342207	1639.8110325448
0	5674	463754.424918070481	1575.1981607638
0	5687	464787.702965783	1983.045413252
0	5696	465486.837417539254	2014.2932080664
0	5701	465966.004470549569	1892.5666134339
0	5712	466926.423004455909	2138.7200386729
0	5719	467493.188881175637	2006.3514636364
0	5732	468278.540051495701	2071.3712955359
0	5739	468797.386067267552	1810.0629891269
0	5748	469331.362192053393	1603.0240436085
0	5755	469935.179138230205	1656.6390867345
0	5768	471049.67766408813	2134.5521176234
0	5777	471835.812568338633	2152.2271446884
0	5782	472318.793103843973	2135.7067951933
0	5795	473174.508362682581	2124.8306985945
0	5800	473622.74973825556	1786.9371699169
0	5813	474615.813011443287	2115.7991419081
0	5818	475183.560385135978	2009.0520224534
0	5827	475715.204903204039	1818.5018816963
0	5840	476491.725757112771	1875.9127456695
0	5849	477307.336856983647	1898.3820679598
0	5854	477672.471818933308	1730.010735523
0	5867	478730.27757746172	2238.5518203489
0	5874	479417.918817373038	2110.5819603894
0	5881	479867.958675557793	1821.6118710581
0	5890	480522.107218718202	1791.8296412565
0	5899	481080.440634861634	1534.0136458632
0	5908	481942.267637467057	1802.8551413678
0	5917	482466.90652677794	1694.0744713414
0	5922	483040.538433752999	1424.4406712707
0	5935	484401.729360641958	1975.0749573112
0	5948	485142.566959653096	2017.7223870065
0	5955	485735.679134912835	1908.2759113982
0	5962	486065.973189007537	1545.2655084897
0	5971	486917.926960252272	1775.3600005992
0	5982	487556.148540834011	1540.1203532238
0	5991	488523.33683101465	2086.7437019013
0	5998	488994.383655348839	1922.0602481626
0	6011	490323.448098963173	2403.69473272
0	6016	490957.671482395427	2151.9420174882
0	6029	491631.369248963939	2085.879530618
0	6034	492082.329926127614	1758.8818271644
0	6047	493179.375119973021	2146.412730217
0	6054	493679.026133939671	2047.6568849757
0	6065	494445.431305468129	2143.7696862034
0	6072	494894.393768766942	1715.0186487939
0	6079	495428.027405217337	1732.3498487938
0	6092	496818.177202949347	2372.7458974812
0	6097	497181.115155899944	1912.7540574409
0	6106	498375.248947553383	2281.5129427705
0	6115	498956.696811877238	2138.5196089279
0	6128	499847.8927077726	2142.5042651128
0	6137	500735.595805384266	2151.8401238602
0	6146	501204.858780512634	1936.42776981
0	6153	501666.777040343779	1818.8843325712
0	6160	502162.830838328275	1427.235032944
0	6173	503672.853238228756	2467.9944577161
0	6180	504464.320711931261	2365.0156212039
0	6191	505239.916520705494	2453.7415680941
0	6198	505880.034316191497	2207.1810779627
0	6205	506247.198128420907	1693.1432185695
0	6216	507282.663862640085	2042.7473419346
0	6223	507839.890107465955	1935.433847364
0	6234	508664.028246235151	2167.436854681
0	6245	509281.60059484658	1991.6013074107
0	6252	509934.081800049219	1769.4902358111
0	6259	510253.409728920135	1568.8213900197
0	6272	511712.060913909275	2430.4603190627
0	6279	512446.809320384685	2367.9200466257
0	6286	512832.413757825319	2010.6329531875
0	6295	513518.519382504795	1806.4584685955
0	6306	514571.108716260691	2082.6792782173
0	6317	515529.169936012526	2343.8293606974
0	6326	516386.412770999645	2516.2121487781
0	6333	517008.618356147831	2320.7482270896
0	6340	517613.368118321572	2084.198182309
0	6349	517954.786252090757	1568.3734810911
0	6360	519204.789974447389	2101.842369698
0	6371	520001.171165099417	2060.3590290528
0	6378	520775.889175711249	2160.3538393043
0	6385	521193.782162480106	1850.3758587409
0	6396	521976.873795781334	1975.7026306819
0	6407	522726.648222981071	1907.7244562097
0	6412	523259.320776723375	1791.5964754298
0	6421	523978.29735944984	1936.9092415553
0	6430	524434.292323468303	1707.6441004872
0	6439	525372.489813482439	1747.0011070836
0	6448	526565.694569237581	2287.9197953269
0	6457	527029.698529467037	1883.3129139617
0	6470	528277.057334454781	2309.5353799872
0	6477	529047.345164325139	2261.4321802743
0	6484	529469.157521752691	1869.715769263
0	6493	530246.754374401695	1969.6970399469
0	6506	531205.750041268817	2044.1840089392
0	6511	531613.476328505254	1685.9946826939
0	6520	532310.775303002498	1897.7212117519
0	6531	532822.489798860675	1616.7397575919
0	6538	533469.240698637491	1653.5336276516
0	6549	534165.371523331902	1728.2733667642
0	6560	535219.36145075602	1893.2276145089
0	6567	535616.128176916442	1819.8246741202
0	6574	536183.993923338182	1664.1391421668
0	6579	536600.106173940055	1380.744723184
0	6594	538024.970833445019	2144.884975953
0	6603	538471.950111491657	1724.7773837764
0	6610	538875.758489733613	1648.1700299308
0	6621	539960.877356445468	1852.6640933007
0	6628	540636.646966449968	1980.8194621
0	6641	541385.471171373553	1977.6680027135
0	6646	541840.599798504315	1739.6772782318
0	6655	542554.423274332709	1844.5439256728
0	6664	543281.201048987038	1895.7298776135
0	6673	544151.816114829905	2093.4787520673
0	6682	544916.322715859913	2104.1543464176
0	6693	546004.672777466528	2301.6052495223
0	6700	546411.656283913232	1856.0436957981
0	6713	547555.881928699143	2260.8405613806
0	6720	548115.464053116791	2035.7045764569
0	6727	548617.663550237245	1889.2666085623
0	6736	549430.274534504912	1874.3926058058
0	6749	550310.447792708926	2159.9870210979
0	6756	551024.782484304212	2066.1313472316
0	6765	551860.015172185428	2201.5488075558
0	6772	552317.524390574596	2007.0765978657
0	6783	553371.824129344948	2203.3382828347
0	6790	553822.841614577972	1960.6966522057
0	6803	554984.144454449468	2311.4820459858
0	6810	555519.792161928543	2139.9706569035
0	6817	555849.225347070077	1678.4314685036
0	6828	556795.750238187664	1811.6057837382
0	6835	557275.865564402246	1728.091937257
0	6844	557871.208062535205	1726.5488987323
0	6853	558911.468807095715	1903.5474848002
0	6862	559636.431842157671	1943.7934243586
0	6871	560447.168046003261	1907.1704350412
0	6882	561323.276632558608	1950.7404831704
0	6893	562494.946565665359	2437.8766877577
0	6902	563392.873773956726	2620.3655269928
0	6911	564236.807081289644	2595.8596914075
0	6916	564631.449765432681	2136.5031997673
0	6929	565380.442534200902	1987.5687602442
0	6938	566245.595130650382	2008.7880493607
0	6945	567099.551984807532	2186.3575582858
0	6952	567449.448963487576	2069.0064292867
0	6961	568277.035034168567	2031.4399035182
0	6970	568848.458907287623	1713.6702200398
0	6983	570223.062663897928	2374.4589420967
0	6992	570860.598316462767	2266.1454574205
0	6999	571444.81898504315	2018.2701987214
0	7006	572096.218874026146	1873.1562101282
0	7015	572596.499472297784	1735.901155835
0	7028	573609.4334791415	1988.6041496415
0	7035	574179.829807486441	1904.9029726535
0	7042	574713.424729043674	1678.2277151942
0	7053	575519.435940776076	1910.0024616346
0	7064	576196.315630897936	1910.118818935
0	7069	576515.519908256885	1723.8327681553
0	7078	577211.915505118725	1601.730461698
0	7087	577673.778781481143	1477.4631505832
0	7100	578948.069204622936	1959.9851627368
0	7107	579486.895882850569	2101.5299926512
0	7114	579996.537073887941	1756.4405954909
0	7125	580920.293029910011	1972.2238252871
0	7136	581946.246458217559	2432.7629502397
0	7145	582562.133539142145	2254.3198030908
0	7154	583382.645208388625	2269.3778123707
0	7161	583930.693611642404	1984.4471534248
0	7170	584630.363138811721	2068.2295996696
0	7177	584987.278158310859	1604.6329499222
0	7186	586146.298829186766	2172.2832831088
0	7195	586537.734248209803	1783.2819735166
0	7204	587444.528160849644	1974.7582497541
0	7217	588307.540656253753	2073.5806239769
0	7222	588677.139044506533	1678.6944825668
0	7233	589589.021886047033	1940.4373303056
0	7244	590450.846750009862	2143.3060937561
0	7249	590957.320384774414	2045.4273628537
0	7258	591503.738125786243	1785.5343660805
0	7271	592607.108022412342	2156.2612724025
0	7278	593245.13386362238	2185.0280798972
0	7287	594064.054056443331	2105.8983804658
0	7294	594734.68763446441	2127.5796120521
0	7305	595384.561441373137	1991.320757987
0	7314	595985.342612955776	1789.910020167
0	7321	596685.918430052754	1738.6993751395
0	7332	597513.995638629478	2109.5864840783
0	7341	597954.284993140083	1684.5365109388
0	7348	598901.033654389959	1753.8748495281
0	7361	599942.617010744345	2419.3248965777
0	7366	600519.82779842807	2159.22777378
0	7377	601381.248862808627	2305.2004542667
0	7384	601900.204424746391	1957.587414002
0	7393	602585.929826460836	1753.6036259495
0	7406	603502.449826430587	1973.0438356753
0	7411	604049.294143449573	1792.5693461671
0	7420	604682.533678924722	1833.9247243479
1	3190	260240.674974024315	353
1	3201	261214.395928150063	354
1	3208	261641.268109018003	355
1	3217	262401.971167512258	356
1	3226	263164.182678842937	357
1	3235	263856.410368625096	358
1	3246	265103.033625148258	359
1	3257	266235.175987612477	360
1	3266	267104.467570083237	361
1	3275	267935.210912162459	362
1	3284	268736.401536176002	363
1	3293	269209.743184922284	364
1	3300	269821.754400897792	365
1	3307	270335.492382198593	366
1	3318	271421.977150160841	367
1	3329	272021.796179981924	368
1	3338	272771.350597310833	369
1	3343	273112.15108134786	370
1	3354	274024.585963832237	371
1	3365	274717.28969961407	372
1	3372	275374.61628271269	373
1	3379	275848.117805505193	374
1	3390	276664.658017130591	375
1	3397	277175.302954902895	376
1	3406	277713.001641165487	377
1	3417	278880.938326008641	378
1	3424	279210.045295301848	379
1	3433	280012.603028956824	380
1	3446	281169.39105195927	381
1	3451	281497.641772683733	382
1	3460	282377.167154336372	383
1	3473	283373.137635877379	384
1	3478	283720.645969826751	385
1	3491	284670.462945476198	386
1	3498	285450.60446779246	387
1	3505	285795.563870575303	388
1	3518	286771.894955495397	389
1	3527	287512.614715704719	390
1	3536	288286.920978315199	391
1	3543	288907.179870363349	392
1	3550	289298.377585317964	393
1	3561	290261.38163292783	394
1	3572	291078.070154087643	395
1	3577	291573.202821984912	396
1	3590	292519.984207861151	397
1	3597	293341.612167935844	398
1	3606	293844.591987552147	399
1	3615	294523.813161626484	400
1	3626	295497.846502298515	401
1	3635	296293.110765656482	402
1	3642	296997.212320379939	403
1	3649	297486.828925553735	404
1	3658	298372.145008156102	405
1	3671	299324.088929593589	406
1	3680	300187.263907492187	407
1	3689	300964.036280382451	408
1	3694	301314.445998938781	409
1	3703	301993.054497381699	410
1	3712	302678.085928084356	411
1	3721	303613.450477039468	412
1	3734	304733.614184707431	413
1	3741	305571.394293336226	414
1	3748	306027.079271106078	415
1	3761	307206.292138388409	416
1	3768	308010.366645315691	417
1	3779	308899.963208846777	418
1	3784	309208.504846785247	419
1	3795	310360.143166780501	420
1	3806	311140.023927530303	421
1	3815	311828.211023518845	422
1	3824	312618.326672678843	423
1	3833	313480.966382380605	424
1	3842	314343.503289716348	425
1	3847	315025.880621792778	426
1	3856	315601.904924260482	427
1	3865	316144.827261753411	428
1	3876	317030.373072763936	429
1	3887	318166.576172551171	430
1	3894	318699.803083576293	431
1	3905	319674.885421246321	432
1	3910	320147.420809138597	433
1	3923	321145.793790416823	434
1	3930	321764.252267824517	435
1	3939	322427.342116925897	436
1	3946	323073.337356699662	437
1	3955	324110.136875649945	438
1	3964	325150.898224348234	439
1	3973	325804.41489648077	440
1	3986	326641.723515512453	441
1	3995	327054.756841482626	442
1	4004	327837.099920120122	443
1	4009	328209.079065872388	444
1	4018	328859.3899293803	445
1	4027	329605.391691159489	446
1	4038	330619.389221258494	447
1	4047	331377.109172428059	448
1	4058	332260.874569695475	449
1	4067	332955.435954267191	450
1	4072	333333.540390478479	451
1	4081	333736.610131803932	452
1	4094	335117.141435807603	453
1	4099	335840.139439702066	454
1	4108	336539.81571486223	455
1	4117	337403.49704353142	456
1	4128	338400.458997068959	457
1	4139	339085.100884549351	458
1	4146	339462.977881031142	459
1	4155	340407.906979322465	460
1	4162	341250.169608788596	461
1	4175	342173.905997397409	462
1	4180	342680.612169764967	463
1	4191	343490.410297969388	464
1	4200	344385.033009946378	465
1	4207	344782.944085774975	466
1	4216	345420.424195937844	467
1	4225	346312.526578735592	468
1	4236	347120.314669003742	469
1	4245	347772.66330351125	470
1	4252	348233.421058533746	471
1	4263	349326.524768862905	472
1	4272	350289.207730488884	473
1	4279	351078.924461687016	474
1	4288	351725.716297002541	475
1	4297	352529.557594098182	476
1	4310	353278.498252434687	477
1	4315	353711.047388054461	478
1	4328	354626.167516736345	479
1	4335	355481.475603673638	480
1	4342	355845.626224391193	481
1	4353	357053.964999876948	482
1	4360	357664.114043209733	483
1	4371	358506.25555990267	484
1	4378	359029.156112764063	485
1	4389	359998.434983566436	486
1	4400	360583.532010018858	487
1	4405	361080.281790671903	488
1	4418	362187.027420289847	489
1	4423	362520.36378909837	490
1	4432	363444.710682844776	491
1	4441	364218.70655352253	492
1	4450	364762.051540380376	493
1	4463	365929.6892773826	494
1	4470	366581.758863665196	495
1	4481	367478.023001644793	496
1	4488	368272.053371463004	497
1	4497	368737.800968997214	498
1	4508	369422.647385671768	499
1	4515	370307.283669104833	500
1	4524	370874.751431448419	501
1	4531	371460.647984175045	502
1	4542	372174.410877702791	503
1	4551	372927.213280135799	504
1	4558	373514.602694800157	505
1	4567	374145.998656237531	506
1	4576	374699.402982322533	507
1	4589	375921.245233342085	508
1	4596	376567.447622353245	509
1	4603	377409.11997109655	510
1	4616	378358.942335192148	511
1	4621	379105.269200261716	512
1	4632	379776.746620237861	513
1	4639	380280.802061827887	514
1	4648	381045.557852787931	515
1	4661	381904.384372383391	516
1	4668	382435.919474903529	517
1	4679	382969.248820049723	518
1	4688	383486.515275668388	519
1	4697	384348.79278838638	520
1	4704	384934.525180980598	521
1	4715	385767.431436851656	522
1	4722	386165.826704632526	523
1	4729	386890.176529157942	524
1	4738	387360.156039800531	525
1	4747	388254.080734541675	526
1	4758	389283.785011712497	527
1	4765	389990.005647903344	528
1	4774	390475.683246972075	529
1	4787	391539.864631276614	530
1	4792	392031.701476173512	531
1	4801	392844.377935538105	532
1	4812	393600.169965717978	533
1	4821	394280.368060106448	534
1	4832	395517.296691611446	535
1	4837	396036.616365658156	536
1	4848	397060.456102481149	537
1	4859	397933.964175637849	538
1	4864	398312.988981697746	539
1	4873	399248.540170630478	540
1	4884	400025.051559973547	541
1	4895	400614.552875608245	542
1	4904	401434.994126670102	543
1	4911	401906.203704373951	544
1	4922	402950.44049913999	545
1	4929	403550.386598333757	546
1	4938	404151.886671921279	547
1	4947	404976.198978256475	548
1	4958	405783.581671491306	549
1	4967	406608.314580330666	550
1	4976	407466.66100267325	551
1	4981	407982.755726063665	552
1	4992	408942.960610566702	553
1	5001	409442.868325067726	554
1	5010	410141.681444412139	555
1	5017	410572.444688715083	556
1	5026	411176.796173024965	557
1	5035	411697.943875612733	558
1	5044	412402.021547919181	559
1	5055	413487.48657521796	560
1	5064	414372.964412625921	561
1	5071	415064.939395152075	562
1	5080	415687.937614973677	563
1	5091	416715.517396945549	564
1	5098	417143.401371454863	565
1	5111	418139.89002266903	566
1	5118	418545.640209596647	567
1	5127	418958.681220654441	568
1	5136	420321.271375101102	569
1	5147	421199.954247381581	570
1	5152	421693.626599013848	571
1	5165	422371.990939043505	572
1	5172	422829.226768389387	573
1	5181	423498.602845100729	574
1	5190	424296.96952197705	575
1	5199	425087.29370646183	576
1	5206	425409.924943093253	577
1	5215	426639.590257080315	578
1	5224	427379.054016759662	579
1	5233	427914.87343925987	580
1	5242	428851.182052865668	581
1	5255	429633.167324680878	582
1	5262	430310.335819004147	583
1	5273	431145.21344834943	584
1	5282	431713.745713513388	585
1	5289	432174.323381250768	586
1	5298	432752.920205751478	587
1	5309	433653.206494404047	588
1	5314	434030.725230183496	589
1	5323	434558.371346723332	590
1	5332	435420.213993312835	591
1	5341	435896.672640647784	592
1	5354	436943.615764053583	593
1	5359	437317.633985169276	594
1	5368	438299.758932692975	595
1	5377	438894.51821269472	596
1	5388	439782.087987754539	597
1	5395	440306.745501514569	598
1	5408	441528.052697517022	599
1	5413	441870.191431324973	600
1	5422	442442.059592669874	601
1	5431	443511.309073912024	602
1	5440	444177.460853755518	603
1	5449	444903.121675411283	604
1	5462	445799.056914215951	605
1	5471	446618.632314261093	606
1	5480	447330.042030662342	607
1	5487	447748.360829707279	608
1	5494	448601.392342010557	609
1	5503	449384.054762916684	610
1	5514	450259.671928826764	611
1	5523	450863.257898250639	612
1	5534	451651.039834320589	613
1	5541	452326.590743288442	614
1	5550	452947.287809522866	615
1	5557	453592.054045060694	616
1	5566	454376.535932673185	617
1	5579	455615.053350152492	618
1	5588	456464.812293509066	619
1	5593	456939.429433224767	620
1	5602	457627.911754231945	621
1	5613	458880.242856871381	622
1	5624	459741.539256647274	623
1	5633	460521.553324721798	624
1	5642	461403.323586797386	625
1	5649	461784.541013510942	626
1	5656	462242.944041453346	627
1	5665	463043.134619342207	628
1	5674	463754.424918070481	629
1	5687	464787.702965783	630
1	5696	465486.837417539254	631
1	5701	465966.004470549569	632
1	5712	466926.423004455909	633
1	5719	467493.188881175637	634
1	5732	468278.540051495701	635
1	5739	468797.386067267552	636
1	5748	469331.362192053393	637
1	5755	469935.179138230205	638
1	5768	471049.67766408813	639
1	5777	471835.812568338633	640
1	5782	472318.793103843973	641
1	5795	473174.508362682581	642
1	5800	473622.74973825556	643
1	5813	474615.813011443287	644
1	5818	475183.560385135978	645
1	5827	475715.204903204039	646
1	5840	476491.725757112771	647
1	5849	477307.336856983647	648
1	5854	477672.471818933308	649
1	5867	478730.27757746172	650
1	5874	479417.918817373038	651
1	5881	479867.958675557793	652
1	5890	480522.107218718202	653
1	5899	481080.440634861634	654
1	5908	481942.267637467057	655
1	5917	482466.90652677794	656
1	5922	483040.538433752999	657
1	5935	484401.729360641958	658
1	5948	485142.566959653096	659
1	5955	485735.679134912835	660
1	5962	486065.973189007537	661
1	5971	486917.926960252272	662
1	5982	487556.148540834011	663
1	5991	488523.33683101465	664
1	5998	488994.383655348839	665
1	6011	490323.448098963173	666
1	6016	490957.671482395427	667
1	6029	491631.369248963939	668
1	6034	492082.329926127614	669
1	6047	493179.375119973021	670
1	6054	493679.026133939671	671
1	6065	494445.431305468129	672
1	6072	494894.393768766942	673
1	6079	495428.027405217337	674
1	6092	496818.177202949347	675
1	6097	497181.115155899944	676
1	6106	498375.248947553383	677
1	6115	498956.696811877238	678
1	6128	499847.8927077726	679
1	6137	500735.595805384266	680
1	6146	501204.858780512634	681
1	6153	501666.777040343779	682
1	6160	502162.830838328275	683
1	6173	503672.853238228756	684
1	6180	504464.320711931261	685
1	6191	505239.916520705494	686
1	6198	505880.034316191497	687
1	6205	506247.198128420907	688
1	6216	507282.663862640085	689
1	6223	507839.890107465955	690
1	6234	508664.028246235151	691
1	6245	509281.60059484658	692
1	6252	509934.081800049219	693
1	6259	510253.409728920135	694
1	6272	511712.060913909275	695
1	6279	512446.809320384685	696
1	6286	512832.413757825319	697
1	6295	513518.519382504795	698
1	6306	514571.108716260691	699
1	6317	515529.169936012526	700
1	6326	516386.412770999645	701
1	6333	517008.618356147831	702
1	6340	517613.368118321572	703
1	6349	517954.786252090757	704
1	6360	519204.789974447389	705
1	6371	520001.171165099417	706
1	6378	520775.889175711249	707
1	6385	521193.782162480106	708
1	6396	521976.873795781334	709
1	6407	522726.648222981071	710
1	6412	523259.320776723375	711
1	6421	523978.29735944984	712
1	6430	524434.292323468303	713
1	6439	525372.489813482439	714
1	6448	526565.694569237581	715
1	6457	527029.698529467037	716
1	6470	528277.057334454781	717
1	6477	529047.345164325139	718
1	6484	529469.157521752691	719
1	6493	530246.754374401695	720
1	6506	531205.750041268817	721
1	6511	531613.476328505254	722
1	6520	532310.775303002498	723
1	6531	532822.489798860675	724
1	6538	533469.240698637491	725
1	6549	534165.371523331902	726
1	6560	535219.36145075602	727
1	6567	535616.128176916442	728
1	6574	536183.993923338182	729
1	6579	536600.106173940055	730
1	6594	538024.970833445019	731
1	6603	538471.950111491657	732
1	6610	538875.758489733613	733
1	6621	539960.877356445468	734
1	6628	540636.646966449968	735
1	6641	541385.471171373553	736
1	6646	541840.599798504315	737
1	6655	542554.423274332709	738
1	6664	543281.201048987038	739
1	6673	544151.816114829905	740
1	6682	544916.322715859913	741
1	6693	546004.672777466528	742
1	6700	546411.656283913232	743
1	6713	547555.881928699143	744
1	6720	548115.464053116791	745
1	6727	548617.663550237245	746
1	6736	549430.274534504912	747
1	6749	550310.447792708926	748
1	6756	551024.782484304212	749
1	6765	551860.015172185428	750
1	6772	552317.524390574596	751
1	6783	553371.824129344948	752
1	6790	553822.841614577972	753
1	6803	554984.144454449468	754
1	6810	555519.792161928543	755
1	6817	555849.225347070077	756
1	6828	556795.750238187664	757
1	6835	557275.865564402246	758
1	6844	557871.208062535205	759
1	6853	558911.468807095715	760
1	6862	559636.431842157671	761
1	6871	560447.168046003261	762
1	6882	561323.276632558608	763
1	6893	562494.946565665359	764
1	6902	563392.873773956726	765
1	6911	564236.807081289644	766
1	6916	564631.449765432681	767
1	6929	565380.442534200902	768
1	6938	566245.595130650382	769
1	6945	567099.551984807532	770
1	6952	567449.448963487576	771
1	6961	568277.035034168567	772
1	6970	568848.458907287623	773
1	6983	570223.062663897928	774
1	6992	570860.598316462767	775
1	6999	571444.81898504315	776
1	7006	572096.218874026146	777
1	7015	572596.499472297784	778
1	7028	573609.4334791415	779
1	7035	574179.829807486441	780
1	7042	574713.424729043674	781
1	7053	575519.435940776076	782
1	7064	576196.315630897936	783
1	7069	576515.519908256885	784
1	7078	577211.915505118725	785
1	7087	577673.778781481143	786
1	7100	578948.069204622936	787
1	7107	579486.895882850569	788
1	7114	579996.537073887941	789
1	7125	580920.293029910011	790
1	7136	581946.246458217559	791
1	7145	582562.133539142145	792
1	7154	583382.645208388625	793
1	7161	583930.693611642404	794
1	7170	584630.363138811721	795
1	7177	584987.278158310859	796
1	7186	586146.298829186766	797
1	7195	586537.734248209803	798
1	7204	587444.528160849644	799
1	7217	588307.540656253753	800
1	7222	588677.139044506533	801
1	7233	589589.021886047033	802
1	7244	590450.846750009862	803
1	7249	590957.320384774414	804
1	7258	591503.738125786243	805
1	7271	592607.108022412342	806
1	7278	593245.13386362238	807
1	7287	594064.054056443331	808
1	7294	594734.68763446441	809
1	7305	595384.561441373137	810
1	7314	595985.342612955776	811
1	7321	596685.918430052754	812
1	7332	597513.995638629478	813
1	7341	597954.284993140083	814
1	7348	598901.033654389959	815
1	7361	599942.617010744345	816
1	7366	600519.82779842807	817
1	7377	601381.248862808627	818
1	7384	601900.204424746391	819
1	7393	602585.929826460836	820
1	7406	603502.449826430587	821
1	7411	604049.294143449573	822
1	7420	604682.533678924722	823

