version 2
run Pipelined_3Teachers-95-20190105-10:57:39-13444
attr configname Pipelined_3Teachers
attr datetime 20190105-10:57:39
attr experiment Pipelined_3Teachers
attr inifile ../simulations/omnetpp.ini
attr iterationvars "$0=\"uniform\""
attr iterationvarsf uniform-
attr measurement "$0=\"uniform\""
attr network PipelinedExamSession
attr processid 13444
attr repetition 95
attr replication #95
attr resultdir results
attr runnumber 95
attr seedset 95
param **.teachersNumber 3
param **.answerTimeDistribution "\"uniform\""
param **.minUniform 300
param **.maxUniform 900
param **.scaleLognormal 6.2854
param **.shapeLognormal 0.4724

vector 0 PipelinedExamSession examinationTime:vector ETV
attr source examFinished
vector 1 PipelinedExamSession studentID:vector ETV
attr source student
0	3120	260075.084163201987	1999.8649021145
0	3131	260787.935666274294	2095.823670784
0	3136	261155.012944852948	1690.9197572619
0	3149	262078.609931375846	1951.0377465282
0	3154	262594.250652194038	1806.3149859197
0	3163	263529.210055014134	1947.9650760535
0	3176	264412.485068198309	2333.8751368225
0	3185	265188.591742096484	2213.3577376138
0	3190	265502.906949352488	1873.2055590022
0	3201	266373.848866671339	1961.363798473
0	3212	267227.792575489745	2039.2008333933
0	3219	267896.110179182157	1949.6289038099
0	3226	268694.973438698814	2150.3202585038
0	3235	269246.702085295707	2018.909509806
0	3244	269867.674084939079	1828.7308823783
0	3253	270628.993891552106	1836.0147127882
0	3262	271456.722507951796	1789.6441964898
0	3273	272289.931263076157	1921.8357265927
0	3284	273200.178715540111	2160.0750172511
0	3291	273730.361562967315	1966.1481823772
0	3302	274450.113893207177	2048.8404967356
0	3307	274865.680346684545	1665.5016311444
0	3316	275499.187457095846	1638.6950321496
0	3327	276470.844620978475	2020.7307277713
0	3338	277093.302230257556	1945.8559489343
0	3347	277727.782374713585	1705.0817906857
0	3356	278613.791156513632	2126.457358757
0	3365	279344.520282000319	2251.2180517428
0	3370	279942.003994854183	2214.2216201406
0	3383	280833.692921139315	2219.9017646257
0	3392	281638.111647963539	2293.5913659632
0	3399	282241.955001326293	2117.0205793809
0	3406	282895.179869234577	2061.4869480953
0	3415	284115.352975018337	2477.2413270548
0	3424	284512.081864848748	2069.1242981236
0	3433	285366.240195231527	2090.5224961694
0	3442	286210.880777752042	2059.8876795731
0	3451	287122.905886871755	2094.1917139571
0	3464	287895.598518988133	1990.7424753997
0	3469	288436.849824758262	1903.9511657786
0	3480	289312.703239917771	2093.4867569245
0	3491	289903.599784523264	2008.0012655351
0	3500	290543.551958911136	1947.4308263976
0	3507	291299.626299133539	1981.8037621211
0	3514	291989.5092777908	2085.9094932675
0	3527	292833.204021072031	2289.6520621609
0	3536	293613.787030102701	2173.7502604723
0	3543	294427.589470613764	2176.7472775653
0	3552	294903.549038199724	2070.3450171277
0	3563	295463.499488867836	1849.7124587651
0	3570	296234.589969227107	1734.8157538567
0	3579	296910.497947130369	2004.1325664148
0	3590	297617.699741665291	2154.2002527975
0	3597	298079.536387464049	1738.8803001959
0	3606	298893.416756764072	1940.3111519292
0	3617	299616.890109283867	1999.1903676186
0	3622	299929.604827892053	1586.7016319185
0	3633	300651.651243260148	1656.1160123907
0	3640	301361.965811066347	1745.0757017825
0	3649	302287.596780527401	2241.9516215567
0	3658	303041.370667051542	2125.9390242398
0	3667	303773.535222653317	1979.8245607875
0	3676	304446.32560657339	1896.9682335388
0	3685	304970.054230280239	1536.950672837
0	3698	306386.095972778294	2287.8437359817
0	3707	307155.416059540603	2497.3347094841
0	3712	307499.453524360452	1969.4332941435
0	3721	308712.67377650367	2326.5778037254
0	3734	309633.084007585439	2477.6679480448
0	3743	310522.089796140808	2548.2533118222
0	3748	310876.469545159507	2065.9250688739
0	3761	312007.99864665607	2374.9146390706
0	3768	312430.649491539244	1908.5596953984
0	3777	313376.070599025135	2110.0380714051
0	3786	313834.150269487892	1826.1516228318
0	3797	314784.241617517565	2194.1934658214
0	3804	315432.832003897075	2047.7795354091
0	3811	315815.817936602999	1645.0370115694
0	3820	316782.782062981298	1998.5404454637
0	3831	317232.527479855364	1733.7859473657
0	3842	318210.905867395943	1937.6824606676
0	3851	319086.67861847209	2201.1566684581
0	3858	319517.224417207783	2076.0835601483
0	3869	320737.742861732861	2526.8369943369
0	3876	321521.902528172379	2435.2239097003
0	3883	322145.157204475274	2218.3376499452
0	3892	322548.082382977029	1810.3395212442
0	3905	323671.401437697952	2093.3347882703
0	3910	324002.090298431014	1622.7037601173
0	3919	324744.267543498447	1745.9727777634
0	3928	325481.837799958905	1810.436362261
0	3937	325999.243977572789	1585.6343007646
0	3946	327292.692357441431	2321.6916703619
0	3957	328080.301283067113	2267.5928180572
0	3966	328774.13325123491	2110.8379191253
0	3975	329641.550344694426	2126.6980906483
0	3984	330112.672645691803	1976.1214106809
0	3991	330512.494244333377	1616.3125127088
0	4004	331678.8637947757	1965.178095689
0	4009	332284.956085821634	1962.5707676634
0	4022	333158.012328855714	2059.5552975778
0	4031	334050.253290496787	2371.3894957211
0	4040	334867.234326945638	2496.9011866953
0	4047	335256.403516698649	2098.3911878429
0	4054	335674.753133626675	1624.4998431299
0	4063	336764.625789597652	1897.391462652
0	4072	337315.2379489504	1646.2498747744
0	4085	338342.753621237373	2173.3018602245
0	4094	339225.47465027312	2298.0395816267
0	4103	340072.657641163116	2510.9346717596
0	4108	340448.352673603242	2105.5990523659
0	4117	341072.019963199293	1846.5453129262
0	4130	341857.445832481628	1784.7881913185
0	4137	342355.024239141514	1589.3782627769
0	4144	342895.503268763443	1638.4999096859
0	4153	343646.898170700317	1789.4523382187
0	4164	344517.235159501454	1938.6266076006
0	4171	345121.739743463716	1874.2950900458
0	4182	346173.194475704825	2174.7363525443
0	4191	347102.392369648461	2216.2673842628
0	4202	348220.102144964059	2558.640271984
0	4209	348680.67101589406	2146.47584958
0	4216	349166.801256034543	1805.6357958354
0	4227	350363.136531086659	2143.0343861226
0	4238	351228.249673778212	2207.1411791258
0	4247	351940.516447601861	2217.052526772
0	4254	352375.398031342796	1901.9089716487
0	4263	353066.670226352311	1838.4205525741
0	4272	353887.705772649519	1947.1893250477
0	4279	354539.149128785379	2101.115573477
0	4288	355040.432532923317	1818.762587104
0	4297	355617.37078651788	1510.3273614775
0	4308	356917.24420655521	2287.2139189392
0	4319	357655.277586355828	2242.7047299687
0	4324	358010.392510006227	1738.7154735625
0	4335	358818.36431231352	1820.8286938258
0	4342	359464.223800040804	1808.946213685
0	4351	360231.777785578766	1865.8221214078
0	4362	360685.578863136494	1510.4279552121
0	4373	361779.388219770068	1867.0076971874
0	4380	362320.427486440191	2048.3156394213
0	4387	362645.701442426095	1580.075444933
0	4392	363120.858311606595	1341.4700918365
0	4405	364659.84257832172	2256.0830942821
0	4414	365235.452470416228	2012.2002203017
0	4423	365887.63640094551	1845.2331873123
0	4434	366739.858636027228	1854.5040755533
0	4441	367149.335138686027	1547.0351331867
0	4452	368092.386779934194	1955.7233235799
0	4459	368860.945335030582	1892.1655210666
0	4470	369803.468150692087	2215.8416637685
0	4479	370609.254978597191	2444.6977391839
0	4490	371240.876413788673	2258.8926812634
0	4495	371545.460056560141	1720.9186573047
0	4504	372337.689263932433	1649.0858159959
0	4513	373087.943835603101	1847.0674218144
0	4526	374048.828517179963	2155.2669328172
0	4535	374884.603019524393	2290.6182044651
0	4540	375330.120061989901	2128.0102490913
0	4549	375983.888164674891	1935.0596474949
0	4562	376716.044564545182	1831.4415450208
0	4567	377072.008942533312	1398.2277749106
0	4578	377925.461548799677	1597.1061967313
0	4589	378740.865545952721	2024.8209814075
0	4594	379053.651354834466	1565.3716565575
0	4603	380033.16002092327	1982.0032602176
0	4612	380654.409549571602	1913.5440036189
0	4625	381825.818363064929	2225.4539458081
0	4632	382197.143579553842	1722.5742463488
0	4641	383209.555065119668	2019.8032320477
0	4650	384093.395043304219	2267.5766802393
0	4659	384896.662019938259	2486.9003138971
0	4670	385584.257991425721	2277.3843511473
0	4677	386096.967725968016	1989.0117477626
0	4684	386673.295563971652	1675.120011298
0	4693	387269.757540849996	1685.4995494243
0	4702	388059.408721094979	1740.162165463
0	4713	389041.360691841719	2125.7267454173
0	4720	389836.891986150322	2116.9565876015
0	4733	390864.09445647153	2360.6936582364
0	4738	391218.177529284758	1954.6696593985
0	4747	391661.945330025656	1652.8463181574
0	4756	392618.552897265208	1754.4584407937
0	4765	393205.605264427167	1715.3169526253
0	4776	394451.920093875405	2244.6274406277
0	4783	394863.941524643478	1911.24539827
0	4792	395816.850441601154	2115.2634479105
0	4801	396397.675652336356	1843.918457441
0	4810	397182.271906407576	1882.7406564262
0	4823	398172.668496938449	2083.5475186352
0	4828	398497.199450572979	1694.7717646603
0	4837	399249.26624530929	1842.6513137296
0	4846	400231.363989226547	2058.6954922881
0	4857	401212.384936725747	2214.7628781851
0	4866	402076.579811330911	2376.9497917034
0	4873	402614.193850709152	2076.2438782956
0	4886	403546.395610738572	2123.4987091273
0	4891	403937.960663298171	1703.5232408904
0	4900	404571.418852591914	1584.8847461399
0	4909	405641.084407595944	2094.6887968574
0	4918	405981.540532736134	1583.9499944821
0	4927	406935.820351447937	1856.364181079
0	4936	407800.283990660709	2101.0260174517
0	4945	408802.626477554467	2222.0765536185
0	4956	409392.387328762588	1922.5002057385
0	4965	410216.718070115921	2005.0080031157
0	4974	410695.721542462733	1670.9239896387
0	4985	411462.296588905182	1992.7105452865
0	4994	412352.677178755429	2084.3582137953
0	5001	412979.906258638975	2062.6578369644
0	5012	413576.28118973228	2113.9846008271
0	5021	414379.658283479538	2026.9811047241
0	5030	414904.743944713872	1893.9421639312
0	5039	415689.046526234623	2112.7653365023
0	5046	416209.826970007297	1830.1686865278
0	5057	417129.861260019269	2225.1173153054
0	5064	417774.87891213971	2085.8323859051
0	5071	418122.78858851644	1712.0643669739
0	5082	418993.085671355974	1863.2244113367
0	5091	419523.711781064075	1514.8051262833
0	5100	420425.59162569235	1784.7849190235
0	5111	421249.821572843966	2140.6452331692
0	5116	421552.2781913169	1709.1372935101
0	5127	422231.677342392531	1675.3886004444
0	5134	422576.339361397577	1326.5177885536
0	5143	423257.143881032271	1569.5730975363
0	5156	424225.364080024911	1991.3631768432
0	5165	424912.622814578963	1971.425603237
0	5174	425716.327435662998	1965.5732139945
0	5179	426158.085464034258	1932.7213840093
0	5190	427130.64086018133	2218.0180456024
0	5199	427900.828944006963	2184.501508344
0	5208	428551.58256869766	2136.2485414837
0	5217	429118.931372556864	1875.7765365299
0	5224	429875.470500346301	1853.9233953226
0	5233	430554.262093501194	1935.6329109985
0	5242	431181.803730223356	1772.6425913628
0	5251	431851.753569580643	1642.5637420267
0	5260	432338.414062885596	1356.5998369362
0	5269	433239.098309492721	1870.9862048272
0	5282	434213.067807443469	2238.6015574448
0	5289	435053.632644005149	2264.9310499895
0	5296	435848.611791897594	2348.2017849572
0	5305	436545.595671515941	2332.5278640725
0	5314	437422.42913302037	2353.5911081359
0	5323	438142.682849848671	2198.0930148158
0	5332	438857.034372165827	2027.6891425252
0	5343	439682.776854559808	1973.7094312906
0	5352	440643.237011740012	2186.6591774393
0	5359	440955.445130076287	1714.4289309159
0	5368	442092.698266217514	1972.0914927777
0	5379	442882.614986691652	2064.7238002159
0	5386	444053.871753439335	2453.4892014228
0	5395	444459.731086855783	1981.8550476339
0	5408	445633.722658082871	2362.7345647663
0	5415	446174.841527547715	2056.1142639723
0	5422	446786.246705241529	2045.1867471915
0	5435	447659.382081963149	2025.6594238803
0	5442	448294.503532256958	2035.0453003775
0	5449	448634.711407776949	1579.104996426
0	5462	450152.085821097744	2492.7037391346
0	5469	450933.176185190705	2496.143555548
0	5476	451741.652306914357	2474.2012208328
0	5489	452648.176519665895	2496.0906985682
0	5498	453513.392468076227	2476.9007035531
0	5505	454167.651058919756	2348.1102322228
0	5514	455084.676045505358	2436.4995258395
0	5521	455618.905680952622	2105.5132128764
0	5532	456570.51702076572	2284.086104203
0	5541	457301.996895857183	2123.9921802655
0	5548	458066.435399791254	2122.6248012856
0	5561	459123.594924062519	2414.1893700231
0	5566	459582.555917836754	2038.8529930729
0	5577	460303.195271780743	2074.0911602508
0	5588	461320.093053393094	2196.4981293306
0	5595	461748.37431963536	1913.3947039023
0	5602	462161.817166395514	1712.8874489106
0	5611	462588.711064774571	1268.6180113815
0	5616	463120.162267517326	1276.980506815
0	5629	464417.402463080389	1984.7309720702
0	5642	465487.560546258492	2247.6825180463
0	5647	465897.811082052094	1897.8985536844
0	5660	466899.401110969512	2159.9850106984
0	5669	467663.287497963785	2175.7269517053
0	5674	468274.28610306236	2246.7149027623
0	5683	469156.756640737905	2257.3555297684
0	5694	469540.968369226932	1877.6808712631
0	5703	470175.483864219888	1785.647489503
0	5710	470757.371614594041	1564.4801854156
0	5723	471831.994219869405	2077.2727578878
0	5728	472147.554588736996	1772.3578927573
0	5739	473033.154289517581	1926.4073273633
0	5746	473716.65236824195	1884.6581483725
0	5755	474450.823087664352	1899.5205120184
0	5766	475704.918133607164	2320.8300491329
0	5777	476534.086663322553	2271.5863492806
0	5782	476987.763203401148	2028.4391352441
0	5793	477984.53185306865	2231.6391544417
0	5802	478823.491956945539	2289.405293623
0	5811	479606.520982040123	2212.1273674071
0	5818	480151.488593034477	2141.6761491448
0	5827	480771.677004033731	1886.864225613
0	5836	481308.050841931284	1566.2542653736
0	5845	482185.201209504188	1687.4583891593
0	5854	483028.79899176772	1732.9898431431
0	5865	483802.932481840283	1955.0609182566
0	5874	484619.465128099576	2101.473145606
0	5885	485517.974926438213	2131.3636288047
0	5890	485907.799808168814	1657.3540611193
0	5903	486816.217087302388	1982.7742691617
0	5912	487634.437108878077	2116.4621824399
0	5917	488062.43175873536	1979.0896443184
0	5930	488950.268836878271	2134.0517495759
0	5937	489500.098089454727	1865.6609805766
0	5948	490385.837470181318	2227.058094414
0	5953	490853.365411330046	1903.0965744518
0	5962	491485.990844294461	1965.5118154362
0	5971	492592.92434351522	2207.0868733339
0	5984	493615.36198211837	2362.904247595
0	5989	493949.798726337062	1827.9373018071
0	6002	494877.305563213335	2139.5428512711
0	6009	495327.411214029448	1712.0492319111
0	6018	496056.592286238479	1950.355375791
0	6029	496916.902567399698	2039.5970041864
0	6038	497738.636726327273	2219.102635514
0	6047	498430.846599675748	2303.7115382496
0	6054	499162.693669460747	2245.791102061
0	6063	499818.952724151347	2080.3159978241
0	6074	500792.945081647518	2362.0984819718
0	6083	501680.067824944886	2465.5721977819
0	6092	502545.027396641704	2543.1528706569
0	6099	502930.766299786079	2137.8212181386
0	6108	503660.574544267762	1980.5067193229
0	6115	504039.291259367052	1494.2638627253
0	6124	505004.322352353516	1926.2208024971
0	6133	505805.800357600706	1888.8573386706
0	6142	506690.482914308119	2079.679755494
0	6155	507616.461744206059	2376.7694166396
0	6160	508021.567948674816	1964.1467933077
0	6173	509297.416205378282	2427.1603526082
0	6182	510136.763333575833	2520.3015893698
0	6187	510708.346916874904	2214.1651839484
0	6200	511875.264586089212	2577.8483807109
0	6207	512580.876288749311	2444.1129551735
0	6214	513240.976992622051	2213.4155404754
0	6223	514088.418390182811	2213.1538040936
0	6236	515024.685570644247	2263.0026361439
0	6245	515841.164795542168	2335.6525513809
0	6252	516458.803003700482	2182.5934790075
0	6259	516857.481411751392	1832.7958411071
0	6268	517370.535825099828	1529.3710295577
0	6279	518985.336413187938	2501.8563066144
0	6286	519615.759855369139	2322.1460186876
0	6295	520298.778906231779	2111.2912320066
0	6304	520773.014840763095	1769.3069117144
0	6313	521185.0482319482	1388.3655144833
0	6326	522226.94650338966	1740.8714337274
0	6333	522924.272078834507	2007.3293158785
0	6340	523235.966027062419	1611.2446190324
0	6345	523701.130454381961	1474.1839509923
0	6358	524801.400575973127	1850.6253372878
0	6371	525876.096411841023	2099.3862157222
0	6376	526397.121769934925	2017.7510566078
0	6385	526982.966656750101	1858.6815613322
0	6394	527716.154260095241	1840.0578482542
0	6405	528543.492756737429	1790.2189143933
0	6416	529557.487698504734	2295.8576589357
0	6425	530184.618989797342	2157.9379585572
0	6430	530618.082734523374	1732.3692621198
0	6439	531310.812464403022	1753.3247658983
0	6450	532275.157480174709	2090.5384903774
0	6461	533277.094064187291	2323.0605911929
0	6466	533809.584744600612	2122.3262852523
0	6479	534739.05045418072	2313.0819147918
0	6488	535571.902679465744	2294.8086152785
0	6495	536010.329679865423	1894.5344208274
0	6502	536711.136428033966	1972.0859738532
0	6513	537536.898969719219	1964.9962902535
0	6520	537969.021111354264	1757.3494354729
0	6529	539273.351548472452	2317.8251259495
0	6540	540079.518179828334	2293.5020192061
0	6547	540488.713338039848	1916.7724971659
0	6556	541043.035458913106	1581.5033046529
0	6567	542218.008044036138	2041.4839607198
0	6574	542585.864376509595	1719.8584045283
0	6587	543582.574529014562	2224.1213573143
0	6594	544234.83084160838	1991.3581166882
0	6601	544897.954291245003	2203.473790409
0	6614	545908.420864027028	2325.8463350125
0	6621	546476.661083148827	2192.2415904701
0	6628	546850.48919403929	1717.2395027708
0	6637	547601.889590173994	1693.468726147
0	6646	547945.297185424749	1351.3876679353
0	6655	549171.359901968423	1995.8392279688
0	6666	550095.084823993999	2248.6132491846
0	6673	550855.166310304809	2120.9248915315
0	6686	551872.280638664994	2286.4058491308
0	6695	552752.678901935029	2300.6047316361
0	6704	553495.806456729803	2367.0711809769
0	6713	554319.353506201912	2447.0728675369
0	6718	554884.130014199797	2131.4511122648
0	6729	555749.802046408911	2253.9955896791
0	6736	556175.294984690879	1855.941478489
0	6747	557025.085587473619	2024.4734429754
0	6754	557604.389863181892	1810.3006239049
0	6765	558188.587880646843	1633.1419751979
0	6772	559057.988390279967	1891.5182910394
0	6781	559772.071903757784	1979.3394655455
0	6794	560625.961884157766	2203.1690385193
0	6801	561120.912091434036	1914.9076248519
0	6808	561581.405130587552	1581.3801874872
0	6817	562428.433941956644	1802.4720577989
0	6828	563459.194051008705	2253.2726334874
0	6835	564046.838873298873	1972.4273440428
0	6846	564955.779837258195	2035.9501996078
0	6855	565585.707099968602	2091.6605936363
0	6866	566548.460967047175	2280.5748111103
0	6875	567413.365957466921	2353.78350229
0	6880	567903.172062663397	1969.6567210369
0	6889	568601.953825727141	2053.49285868
0	6898	569191.990755172483	1778.6247977056
0	6907	569891.390710556916	1634.4519064296
0	6916	570505.40778902363	1593.9365839586
0	6925	571396.757045388258	2018.0986787193
0	6934	572062.253173626996	1860.6004476082
0	6943	572815.590887004547	1896.4443573263
0	6952	573310.536613035984	1674.5420771185
0	6961	574004.058688692785	1530.5507434532
0	6974	575259.62535375733	2328.5665214527
0	6983	575880.192242329978	2104.388982011
0	6992	576730.491493223273	2299.551149318
0	7001	577429.882641881742	2170.2572881244
0	7010	578323.588780593165	2443.3965382632
0	7015	578691.754021402486	1961.2625281792
0	7024	579375.677383504846	1945.7947416231
0	7035	580237.518891971596	1913.9301113784
0	7042	580698.451290791892	1670.7841476426
0	7053	581709.10265771676	1942.1301347204
0	7062	582391.92989291627	2131.0424916912
0	7069	582997.268718760499	1971.8961725011
0	7078	584037.025770172515	2226.2020563707
0	7091	584916.4477898274	2265.3121561278
0	7098	585633.119914261663	2387.127049081
0	7105	586138.729370897675	1992.8219648078
0	7118	587167.836725944692	2251.3889361173
0	7127	587879.636544501448	2171.9382458366
0	7132	588486.275551887268	1948.0075906031
0	7145	589421.015860559458	2253.1791346148
0	7150	589852.385075669775	1972.7485311683
0	7163	590685.740286670664	2081.6465507727
0	7170	591535.205174982587	2114.1893144231
0	7179	592078.922282578462	2078.7355504464
0	7186	592503.490351326802	1817.7500646561
0	7197	593784.590617474207	2220.3755702823
0	7204	594276.720125740432	2018.7307112385
0	7213	595135.981254698747	2093.445474375
0	7226	596124.359761225098	2190.4866184574
0	7231	596465.372447110751	1640.3153094929
0	7242	597490.350711252579	1906.507038977
0	7253	598083.589178882579	1959.2294176575
0	7262	598799.745303439016	2142.7110773977
0	7271	599482.385270576964	1965.8314510714
0	7276	599837.119938852305	1753.5307599697
0	7289	601047.692334232892	2247.9470307939
0	7294	601746.091190027113	2263.7059194501
0	7307	602516.153395129407	2368.4141503181
0	7312	602954.170485260004	1906.4781510271
0	7323	603784.610787034075	1992.9030960426
0	7330	604454.54699951228	1938.3936043829
1	3120	260075.084163201987	345
1	3131	260787.935666274294	346
1	3136	261155.012944852948	347
1	3149	262078.609931375846	348
1	3154	262594.250652194038	349
1	3163	263529.210055014134	350
1	3176	264412.485068198309	351
1	3185	265188.591742096484	352
1	3190	265502.906949352488	353
1	3201	266373.848866671339	354
1	3212	267227.792575489745	355
1	3219	267896.110179182157	356
1	3226	268694.973438698814	357
1	3235	269246.702085295707	358
1	3244	269867.674084939079	359
1	3253	270628.993891552106	360
1	3262	271456.722507951796	361
1	3273	272289.931263076157	362
1	3284	273200.178715540111	363
1	3291	273730.361562967315	364
1	3302	274450.113893207177	365
1	3307	274865.680346684545	366
1	3316	275499.187457095846	367
1	3327	276470.844620978475	368
1	3338	277093.302230257556	369
1	3347	277727.782374713585	370
1	3356	278613.791156513632	371
1	3365	279344.520282000319	372
1	3370	279942.003994854183	373
1	3383	280833.692921139315	374
1	3392	281638.111647963539	375
1	3399	282241.955001326293	376
1	3406	282895.179869234577	377
1	3415	284115.352975018337	378
1	3424	284512.081864848748	379
1	3433	285366.240195231527	380
1	3442	286210.880777752042	381
1	3451	287122.905886871755	382
1	3464	287895.598518988133	383
1	3469	288436.849824758262	384
1	3480	289312.703239917771	385
1	3491	289903.599784523264	386
1	3500	290543.551958911136	387
1	3507	291299.626299133539	388
1	3514	291989.5092777908	389
1	3527	292833.204021072031	390
1	3536	293613.787030102701	391
1	3543	294427.589470613764	392
1	3552	294903.549038199724	393
1	3563	295463.499488867836	394
1	3570	296234.589969227107	395
1	3579	296910.497947130369	396
1	3590	297617.699741665291	397
1	3597	298079.536387464049	398
1	3606	298893.416756764072	399
1	3617	299616.890109283867	400
1	3622	299929.604827892053	401
1	3633	300651.651243260148	402
1	3640	301361.965811066347	403
1	3649	302287.596780527401	404
1	3658	303041.370667051542	405
1	3667	303773.535222653317	406
1	3676	304446.32560657339	407
1	3685	304970.054230280239	408
1	3698	306386.095972778294	409
1	3707	307155.416059540603	410
1	3712	307499.453524360452	411
1	3721	308712.67377650367	412
1	3734	309633.084007585439	413
1	3743	310522.089796140808	414
1	3748	310876.469545159507	415
1	3761	312007.99864665607	416
1	3768	312430.649491539244	417
1	3777	313376.070599025135	418
1	3786	313834.150269487892	419
1	3797	314784.241617517565	420
1	3804	315432.832003897075	421
1	3811	315815.817936602999	422
1	3820	316782.782062981298	423
1	3831	317232.527479855364	424
1	3842	318210.905867395943	425
1	3851	319086.67861847209	426
1	3858	319517.224417207783	427
1	3869	320737.742861732861	428
1	3876	321521.902528172379	429
1	3883	322145.157204475274	430
1	3892	322548.082382977029	431
1	3905	323671.401437697952	432
1	3910	324002.090298431014	433
1	3919	324744.267543498447	434
1	3928	325481.837799958905	435
1	3937	325999.243977572789	436
1	3946	327292.692357441431	437
1	3957	328080.301283067113	438
1	3966	328774.13325123491	439
1	3975	329641.550344694426	440
1	3984	330112.672645691803	441
1	3991	330512.494244333377	442
1	4004	331678.8637947757	443
1	4009	332284.956085821634	444
1	4022	333158.012328855714	445
1	4031	334050.253290496787	446
1	4040	334867.234326945638	447
1	4047	335256.403516698649	448
1	4054	335674.753133626675	449
1	4063	336764.625789597652	450
1	4072	337315.2379489504	451
1	4085	338342.753621237373	452
1	4094	339225.47465027312	453
1	4103	340072.657641163116	454
1	4108	340448.352673603242	455
1	4117	341072.019963199293	456
1	4130	341857.445832481628	457
1	4137	342355.024239141514	458
1	4144	342895.503268763443	459
1	4153	343646.898170700317	460
1	4164	344517.235159501454	461
1	4171	345121.739743463716	462
1	4182	346173.194475704825	463
1	4191	347102.392369648461	464
1	4202	348220.102144964059	465
1	4209	348680.67101589406	466
1	4216	349166.801256034543	467
1	4227	350363.136531086659	468
1	4238	351228.249673778212	469
1	4247	351940.516447601861	470
1	4254	352375.398031342796	471
1	4263	353066.670226352311	472
1	4272	353887.705772649519	473
1	4279	354539.149128785379	474
1	4288	355040.432532923317	475
1	4297	355617.37078651788	476
1	4308	356917.24420655521	477
1	4319	357655.277586355828	478
1	4324	358010.392510006227	479
1	4335	358818.36431231352	480
1	4342	359464.223800040804	481
1	4351	360231.777785578766	482
1	4362	360685.578863136494	483
1	4373	361779.388219770068	484
1	4380	362320.427486440191	485
1	4387	362645.701442426095	486
1	4392	363120.858311606595	487
1	4405	364659.84257832172	488
1	4414	365235.452470416228	489
1	4423	365887.63640094551	490
1	4434	366739.858636027228	491
1	4441	367149.335138686027	492
1	4452	368092.386779934194	493
1	4459	368860.945335030582	494
1	4470	369803.468150692087	495
1	4479	370609.254978597191	496
1	4490	371240.876413788673	497
1	4495	371545.460056560141	498
1	4504	372337.689263932433	499
1	4513	373087.943835603101	500
1	4526	374048.828517179963	501
1	4535	374884.603019524393	502
1	4540	375330.120061989901	503
1	4549	375983.888164674891	504
1	4562	376716.044564545182	505
1	4567	377072.008942533312	506
1	4578	377925.461548799677	507
1	4589	378740.865545952721	508
1	4594	379053.651354834466	509
1	4603	380033.16002092327	510
1	4612	380654.409549571602	511
1	4625	381825.818363064929	512
1	4632	382197.143579553842	513
1	4641	383209.555065119668	514
1	4650	384093.395043304219	515
1	4659	384896.662019938259	516
1	4670	385584.257991425721	517
1	4677	386096.967725968016	518
1	4684	386673.295563971652	519
1	4693	387269.757540849996	520
1	4702	388059.408721094979	521
1	4713	389041.360691841719	522
1	4720	389836.891986150322	523
1	4733	390864.09445647153	524
1	4738	391218.177529284758	525
1	4747	391661.945330025656	526
1	4756	392618.552897265208	527
1	4765	393205.605264427167	528
1	4776	394451.920093875405	529
1	4783	394863.941524643478	530
1	4792	395816.850441601154	531
1	4801	396397.675652336356	532
1	4810	397182.271906407576	533
1	4823	398172.668496938449	534
1	4828	398497.199450572979	535
1	4837	399249.26624530929	536
1	4846	400231.363989226547	537
1	4857	401212.384936725747	538
1	4866	402076.579811330911	539
1	4873	402614.193850709152	540
1	4886	403546.395610738572	541
1	4891	403937.960663298171	542
1	4900	404571.418852591914	543
1	4909	405641.084407595944	544
1	4918	405981.540532736134	545
1	4927	406935.820351447937	546
1	4936	407800.283990660709	547
1	4945	408802.626477554467	548
1	4956	409392.387328762588	549
1	4965	410216.718070115921	550
1	4974	410695.721542462733	551
1	4985	411462.296588905182	552
1	4994	412352.677178755429	553
1	5001	412979.906258638975	554
1	5012	413576.28118973228	555
1	5021	414379.658283479538	556
1	5030	414904.743944713872	557
1	5039	415689.046526234623	558
1	5046	416209.826970007297	559
1	5057	417129.861260019269	560
1	5064	417774.87891213971	561
1	5071	418122.78858851644	562
1	5082	418993.085671355974	563
1	5091	419523.711781064075	564
1	5100	420425.59162569235	565
1	5111	421249.821572843966	566
1	5116	421552.2781913169	567
1	5127	422231.677342392531	568
1	5134	422576.339361397577	569
1	5143	423257.143881032271	570
1	5156	424225.364080024911	571
1	5165	424912.622814578963	572
1	5174	425716.327435662998	573
1	5179	426158.085464034258	574
1	5190	427130.64086018133	575
1	5199	427900.828944006963	576
1	5208	428551.58256869766	577
1	5217	429118.931372556864	578
1	5224	429875.470500346301	579
1	5233	430554.262093501194	580
1	5242	431181.803730223356	581
1	5251	431851.753569580643	582
1	5260	432338.414062885596	583
1	5269	433239.098309492721	584
1	5282	434213.067807443469	585
1	5289	435053.632644005149	586
1	5296	435848.611791897594	587
1	5305	436545.595671515941	588
1	5314	437422.42913302037	589
1	5323	438142.682849848671	590
1	5332	438857.034372165827	591
1	5343	439682.776854559808	592
1	5352	440643.237011740012	593
1	5359	440955.445130076287	594
1	5368	442092.698266217514	595
1	5379	442882.614986691652	596
1	5386	444053.871753439335	597
1	5395	444459.731086855783	598
1	5408	445633.722658082871	599
1	5415	446174.841527547715	600
1	5422	446786.246705241529	601
1	5435	447659.382081963149	602
1	5442	448294.503532256958	603
1	5449	448634.711407776949	604
1	5462	450152.085821097744	605
1	5469	450933.176185190705	606
1	5476	451741.652306914357	607
1	5489	452648.176519665895	608
1	5498	453513.392468076227	609
1	5505	454167.651058919756	610
1	5514	455084.676045505358	611
1	5521	455618.905680952622	612
1	5532	456570.51702076572	613
1	5541	457301.996895857183	614
1	5548	458066.435399791254	615
1	5561	459123.594924062519	616
1	5566	459582.555917836754	617
1	5577	460303.195271780743	618
1	5588	461320.093053393094	619
1	5595	461748.37431963536	620
1	5602	462161.817166395514	621
1	5611	462588.711064774571	622
1	5616	463120.162267517326	623
1	5629	464417.402463080389	624
1	5642	465487.560546258492	625
1	5647	465897.811082052094	626
1	5660	466899.401110969512	627
1	5669	467663.287497963785	628
1	5674	468274.28610306236	629
1	5683	469156.756640737905	630
1	5694	469540.968369226932	631
1	5703	470175.483864219888	632
1	5710	470757.371614594041	633
1	5723	471831.994219869405	634
1	5728	472147.554588736996	635
1	5739	473033.154289517581	636
1	5746	473716.65236824195	637
1	5755	474450.823087664352	638
1	5766	475704.918133607164	639
1	5777	476534.086663322553	640
1	5782	476987.763203401148	641
1	5793	477984.53185306865	642
1	5802	478823.491956945539	643
1	5811	479606.520982040123	644
1	5818	480151.488593034477	645
1	5827	480771.677004033731	646
1	5836	481308.050841931284	647
1	5845	482185.201209504188	648
1	5854	483028.79899176772	649
1	5865	483802.932481840283	650
1	5874	484619.465128099576	651
1	5885	485517.974926438213	652
1	5890	485907.799808168814	653
1	5903	486816.217087302388	654
1	5912	487634.437108878077	655
1	5917	488062.43175873536	656
1	5930	488950.268836878271	657
1	5937	489500.098089454727	658
1	5948	490385.837470181318	659
1	5953	490853.365411330046	660
1	5962	491485.990844294461	661
1	5971	492592.92434351522	662
1	5984	493615.36198211837	663
1	5989	493949.798726337062	664
1	6002	494877.305563213335	665
1	6009	495327.411214029448	666
1	6018	496056.592286238479	667
1	6029	496916.902567399698	668
1	6038	497738.636726327273	669
1	6047	498430.846599675748	670
1	6054	499162.693669460747	671
1	6063	499818.952724151347	672
1	6074	500792.945081647518	673
1	6083	501680.067824944886	674
1	6092	502545.027396641704	675
1	6099	502930.766299786079	676
1	6108	503660.574544267762	677
1	6115	504039.291259367052	678
1	6124	505004.322352353516	679
1	6133	505805.800357600706	680
1	6142	506690.482914308119	681
1	6155	507616.461744206059	682
1	6160	508021.567948674816	683
1	6173	509297.416205378282	684
1	6182	510136.763333575833	685
1	6187	510708.346916874904	686
1	6200	511875.264586089212	687
1	6207	512580.876288749311	688
1	6214	513240.976992622051	689
1	6223	514088.418390182811	690
1	6236	515024.685570644247	691
1	6245	515841.164795542168	692
1	6252	516458.803003700482	693
1	6259	516857.481411751392	694
1	6268	517370.535825099828	695
1	6279	518985.336413187938	696
1	6286	519615.759855369139	697
1	6295	520298.778906231779	698
1	6304	520773.014840763095	699
1	6313	521185.0482319482	700
1	6326	522226.94650338966	701
1	6333	522924.272078834507	702
1	6340	523235.966027062419	703
1	6345	523701.130454381961	704
1	6358	524801.400575973127	705
1	6371	525876.096411841023	706
1	6376	526397.121769934925	707
1	6385	526982.966656750101	708
1	6394	527716.154260095241	709
1	6405	528543.492756737429	710
1	6416	529557.487698504734	711
1	6425	530184.618989797342	712
1	6430	530618.082734523374	713
1	6439	531310.812464403022	714
1	6450	532275.157480174709	715
1	6461	533277.094064187291	716
1	6466	533809.584744600612	717
1	6479	534739.05045418072	718
1	6488	535571.902679465744	719
1	6495	536010.329679865423	720
1	6502	536711.136428033966	721
1	6513	537536.898969719219	722
1	6520	537969.021111354264	723
1	6529	539273.351548472452	724
1	6540	540079.518179828334	725
1	6547	540488.713338039848	726
1	6556	541043.035458913106	727
1	6567	542218.008044036138	728
1	6574	542585.864376509595	729
1	6587	543582.574529014562	730
1	6594	544234.83084160838	731
1	6601	544897.954291245003	732
1	6614	545908.420864027028	733
1	6621	546476.661083148827	734
1	6628	546850.48919403929	735
1	6637	547601.889590173994	736
1	6646	547945.297185424749	737
1	6655	549171.359901968423	738
1	6666	550095.084823993999	739
1	6673	550855.166310304809	740
1	6686	551872.280638664994	741
1	6695	552752.678901935029	742
1	6704	553495.806456729803	743
1	6713	554319.353506201912	744
1	6718	554884.130014199797	745
1	6729	555749.802046408911	746
1	6736	556175.294984690879	747
1	6747	557025.085587473619	748
1	6754	557604.389863181892	749
1	6765	558188.587880646843	750
1	6772	559057.988390279967	751
1	6781	559772.071903757784	752
1	6794	560625.961884157766	753
1	6801	561120.912091434036	754
1	6808	561581.405130587552	755
1	6817	562428.433941956644	756
1	6828	563459.194051008705	757
1	6835	564046.838873298873	758
1	6846	564955.779837258195	759
1	6855	565585.707099968602	760
1	6866	566548.460967047175	761
1	6875	567413.365957466921	762
1	6880	567903.172062663397	763
1	6889	568601.953825727141	764
1	6898	569191.990755172483	765
1	6907	569891.390710556916	766
1	6916	570505.40778902363	767
1	6925	571396.757045388258	768
1	6934	572062.253173626996	769
1	6943	572815.590887004547	770
1	6952	573310.536613035984	771
1	6961	574004.058688692785	772
1	6974	575259.62535375733	773
1	6983	575880.192242329978	774
1	6992	576730.491493223273	775
1	7001	577429.882641881742	776
1	7010	578323.588780593165	777
1	7015	578691.754021402486	778
1	7024	579375.677383504846	779
1	7035	580237.518891971596	780
1	7042	580698.451290791892	781
1	7053	581709.10265771676	782
1	7062	582391.92989291627	783
1	7069	582997.268718760499	784
1	7078	584037.025770172515	785
1	7091	584916.4477898274	786
1	7098	585633.119914261663	787
1	7105	586138.729370897675	788
1	7118	587167.836725944692	789
1	7127	587879.636544501448	790
1	7132	588486.275551887268	791
1	7145	589421.015860559458	792
1	7150	589852.385075669775	793
1	7163	590685.740286670664	794
1	7170	591535.205174982587	795
1	7179	592078.922282578462	796
1	7186	592503.490351326802	797
1	7197	593784.590617474207	798
1	7204	594276.720125740432	799
1	7213	595135.981254698747	800
1	7226	596124.359761225098	801
1	7231	596465.372447110751	802
1	7242	597490.350711252579	803
1	7253	598083.589178882579	804
1	7262	598799.745303439016	805
1	7271	599482.385270576964	806
1	7276	599837.119938852305	807
1	7289	601047.692334232892	808
1	7294	601746.091190027113	809
1	7307	602516.153395129407	810
1	7312	602954.170485260004	811
1	7323	603784.610787034075	812
1	7330	604454.54699951228	813

