version 2
run Pipelined_3Teachers-40-20190105-10:57:26-14828
attr configname Pipelined_3Teachers
attr datetime 20190105-10:57:26
attr experiment Pipelined_3Teachers
attr inifile ../simulations/omnetpp.ini
attr iterationvars "$0=\"uniform\""
attr iterationvarsf uniform-
attr measurement "$0=\"uniform\""
attr network PipelinedExamSession
attr processid 14828
attr repetition 40
attr replication #40
attr resultdir results
attr runnumber 40
attr seedset 40
param **.teachersNumber 3
param **.answerTimeDistribution "\"uniform\""
param **.minUniform 300
param **.maxUniform 900
param **.scaleLognormal 6.2854
param **.shapeLognormal 0.4724

vector 0 PipelinedExamSession examinationTime:vector ETV
attr source examFinished
vector 1 PipelinedExamSession studentID:vector ETV
attr source student
0	3199	260430.420603649697	2027.7405807283
0	3212	261419.127799104905	2140.9325671848
0	3217	262042.822528956464	1963.4381687734
0	3228	262805.714319180703	2118.4748778585
0	3235	263607.205971842637	2188.0781727377
0	3246	264734.347533714032	2499.8471987899
0	3255	265298.026388883597	2228.9387554396
0	3264	266099.105540849275	2171.861584112
0	3271	266424.64215843939	1610.0279774051
0	3280	267751.006749831147	2392.5694098696
0	3293	268687.52894508653	2460.4477797635
0	3298	269074.740199930972	2009.0401195921
0	3307	269726.776623353368	1793.5755325947
0	3316	270755.382930720231	2067.8539856337
0	3327	271392.816265532753	1915.7749042846
0	3338	272371.370191080503	2209.7280768212
0	3347	273191.869605984546	2306.0938385781
0	3356	273954.912520386286	2331.0683825053
0	3363	274684.486796893187	2313.1166058127
0	3372	275167.744601843886	1975.8749958593
0	3383	275886.021863250069	1931.1093428638
0	3388	276235.028820857413	1462.5680269673
0	3397	276998.288511391736	1736.7845751811
0	3406	277553.137948131196	1667.1160848811
0	3419	278965.111216390513	2390.6513912603
0	3424	279548.375808075078	2335.4362429585
0	3433	279977.67059295439	1870.0711653102
0	3444	281253.300731442876	2288.1895150524
0	3453	281871.460630372174	2042.5658589229
0	3464	282736.468956805773	2065.1180881541
0	3471	283262.096824077897	1771.6715978924
0	3482	284155.704308208086	2135.7701679692
0	3487	284853.488023392864	2117.0190665871
0	3500	285775.236489018434	2474.971088022
0	3507	286565.004570409664	2409.3002622016
0	3518	287437.108423607433	2448.5097913072
0	3523	287823.362070182347	2048.1255811639
0	3536	289106.65710135364	2440.6182541978
0	3545	289813.208336848775	2376.0999132413
0	3554	290211.670276243249	1950.5009743385
0	3559	290675.216829311112	1568.5597279575
0	3568	291376.754786493266	1563.5464496445
0	3577	292122.682988690222	1911.012712447
0	3586	292888.887549424553	1835.0522618741
0	3597	294216.169905988509	2334.8070608452
0	3606	295003.192136809239	2328.6153111141
0	3615	295850.611047539871	2334.1826818418
0	3624	296380.525766545918	2025.2589954995
0	3631	296926.095121772971	1890.1600393932
0	3642	297915.934550575922	2054.7832132783
0	3649	298602.634236356253	2012.1895030607
0	3658	299064.306819252679	1917.4124560319
0	3671	300187.193955341364	2210.2680546697
0	3676	300681.430185819055	1842.1510567423
0	3687	301541.10722062179	1890.6367541291
0	3698	302363.494659913714	2176.3007045723
0	3703	302768.596687121327	1723.4350416809
0	3712	303155.12388618664	1558.0732651055
0	3721	304341.512987343605	1978.0183274299
0	3732	305219.629131490375	2099.3364061229
0	3743	306096.11774487422	2235.7960307971
0	3752	306966.187229985382	2402.8523151297
0	3759	307695.686695212509	2405.5880567059
0	3766	308181.720926240097	2085.6031813659
0	3779	309497.894309554259	2531.7070795689
0	3784	309855.161162931482	2013.6789717246
0	3795	310824.094508495192	2200.8263762109
0	3806	312091.602103924389	2593.7077943701
0	3815	312860.199624253447	2485.9437217936
0	3824	313593.844711175199	2381.2709311489
0	3829	313985.181555384781	1893.5794514604
0	3840	314902.520491462211	2042.3208672088
0	3847	315349.452767288322	1755.6080561131
0	3856	316433.659966941934	2260.279280087
0	3869	317251.666955184203	2216.5588928852
0	3876	317919.191141333443	1995.309742447
0	3887	318913.274382194516	2423.9955126308
0	3892	319619.200691347954	2367.5337361638
0	3901	320166.008436726418	2082.930039335
0	3912	321106.790669448686	2193.5162872542
0	3919	321647.82997062431	1843.3323226869
0	3930	322546.162023721275	2121.6974757146
0	3939	323613.558144215507	2304.1649100836
0	3948	324175.081333005813	2048.3099549543
0	3955	324727.383159426984	1905.0505607855
0	3968	326264.065008284537	2618.2835450862
0	3973	326592.61223310606	2051.1200736277
0	3984	327485.212893085567	2120.4911575187
0	3993	328331.313755549503	2067.248747265
0	4004	329130.639061890555	2234.7639300395
0	4009	329520.438279071835	1744.0101452172
0	4018	330397.039484046412	2019.0307639539
0	4027	331249.764042533947	2119.1249806434
0	4038	331998.760291188967	2294.3217570428
0	4047	332503.704957151797	1902.2879072931
0	4054	333313.597344746825	1954.3690656312
0	4063	334377.364399563534	2358.9699679054
0	4076	335277.901287004364	2448.5493336339
0	4081	335604.495919961495	1918.445439823
0	4092	336568.478775909183	2056.6175466869
0	4099	337041.42878497952	1763.5274979752
0	4110	338161.831151414675	2274.9456026126
0	4117	338863.409927487385	2158.1337107811
0	4126	339463.533608056617	1998.3823856805
0	4137	340414.22163974495	2080.402737949
0	4146	341188.620457565425	1965.2288355399
0	4153	341590.215095970793	1721.3804579806
0	4162	342470.230019046007	1975.934025133
0	4171	343010.484875645501	1804.3835334945
0	4184	343975.078649399815	2085.3412133642
0	4193	344817.754846718175	2131.7173836753
0	4202	345458.438037615282	2297.3524494097
0	4211	346060.552492970613	2085.4738435708
0	4218	346655.406820960355	1837.6519742422
0	4225	347323.185819620279	1864.747782005
0	4234	348106.233319966135	2045.6808269955
0	4245	348867.787684220833	2108.5331893992
0	4254	349491.617370536563	1894.9604137335
0	4265	350273.175435187308	1949.6224709786
0	4274	350967.165517341359	2090.2591711376
0	4283	351800.103948405026	2281.0131852049
0	4290	352526.976671302705	2253.8012361154
0	4299	353184.633977478384	2217.468460137
0	4306	353614.630879880874	1814.5269314758
0	4315	354458.632906666039	1866.1256242543
0	4328	355397.417530557154	2049.3745273445
0	4335	355847.724920371561	1775.1984279603
0	4342	356275.279397098361	1680.9055463411
0	4355	357258.329031709595	1860.9115011524
0	4362	357937.997591961189	1810.2252194658
0	4371	358597.479304717868	2050.2971386537
0	4378	358928.096178174032	1669.7671464644
0	4389	360038.628171617179	2047.9396217968
0	4400	360891.768309753402	2284.4987257384
0	4407	361664.306463673725	2390.3754147235
0	4418	362112.327632540851	1961.2627097871
0	4423	362564.149511139854	1672.3812013865
0	4432	363336.202115938082	1660.9797155019
0	4443	364160.144472168773	2047.8168396279
0	4450	364687.773820711314	1844.6574901231
0	4459	365435.261834179997	1841.1148417275
0	4468	366270.995491091176	2059.538263455
0	4481	367299.151462549358	2240.91602345
0	4486	367899.213691614583	1991.4942793082
0	4495	368345.045133121326	1852.0734451711
0	4506	369005.818704608842	1706.6672420595
0	4513	369328.831027261927	1265.7249189913
0	4526	370328.318633325412	1735.4056474753
0	4531	370876.789807481705	1774.7741421685
0	4542	371645.952923409655	1827.9480369296
0	4551	372359.207283239826	2030.8886499144
0	4560	373106.37198267506	2180.9372713789
0	4571	374031.148557644351	2253.8502279203
0	4576	374635.432299133404	2126.9591805059
0	4589	375671.35624000804	2421.0790130775
0	4598	376548.599140020101	2517.4505823757
0	4607	377268.949663499384	2386.2082272302
0	4612	377828.193261707215	2156.8370216992
0	4621	378479.381839837893	1930.7826998178
0	4632	379409.677752340227	2140.7280888408
0	4641	380381.922953668997	2338.2456873078
0	4650	381325.796450022624	2423.8849162124
0	4657	381725.096497591601	1948.1673273258
0	4666	382830.28583633715	2239.0992002562
0	4675	383374.91316455418	1992.2811051831
0	4684	384045.227178325893	1828.1669933349
0	4697	385008.02888134496	1945.1905803289
0	4706	385706.746636424229	1992.5718112383
0	4715	386479.718571435676	2302.2307301871
0	4722	387111.851533362658	2103.8226520177
0	4731	387838.362163631261	2131.615527207
0	4738	388173.078486369938	1693.3599149343
0	4749	389085.993310622887	1747.5404913537
0	4758	389755.453583830984	1898.3351800125
0	4767	390403.413117304461	1917.5403532572
0	4770	390750.929322559403	1550.9783746675
0	4785	391953.058338258432	2073.2601048891
0	4792	392926.948399655537	2147.2803100012
0	4801	393633.970402088032	2131.7084421404
0	4812	394455.372288962842	2124.1521033458
0	4819	394888.376750238256	1827.3783738725
0	4832	395981.299990089627	2133.0844835378
0	4841	396772.799732303264	2306.3998132478
0	4850	397468.514413526299	2287.5246101059
0	4855	397968.73763753103	1987.4376474414
0	4866	398897.692247154209	2124.8925148509
0	4877	399794.135199487227	2325.6207859609
0	4882	400603.660936933029	2416.178810969
0	4893	401069.55050169492	2148.664236255
0	4900	401601.066813664528	1806.9316141773
0	4909	402554.56259306522	1894.9075376149
0	4922	403669.68126716094	2495.1685352717
0	4929	404084.629130316916	2068.8189610373
0	4938	404837.868953961897	1964.9250964634
0	4947	405493.61623325387	1823.9349660929
0	4954	406024.849907169136	1886.8217303418
0	4965	407183.957256563025	2336.7431247141
0	4974	407910.612585023063	2231.2136089895
0	4981	408308.282405231165	1912.5341115519
0	4992	409110.426674410719	1828.9770362433
0	5001	409653.722936846334	1631.4481402282
0	5010	410581.623170245458	1998.4812488314
0	5021	411556.910134898517	2319.6417275816
0	5028	412189.707403583471	2273.2194908895
0	5039	413001.495348662156	2228.6577726714
0	5044	413318.353495700303	1761.4433608018
0	5057	414629.325096169505	2433.3829654846
0	5066	415501.310443645362	2499.8150949832
0	5073	416136.816480942089	2301.6428873409
0	5082	416773.217380419393	2143.8922842499
0	5089	417184.480771282707	1683.1703276373
0	5098	418506.921590957809	2345.9369145334
0	5107	418922.839307785053	1867.9542730562
0	5116	419891.682027792577	1958.2913272083
0	5127	420689.287056494523	1884.7822251264
0	5138	421553.561476757769	2001.0909317527
0	5143	422054.767874674891	1918.9212888479
0	5152	422686.081177135948	1879.0013676044
0	5163	423619.244978902881	2065.6835021451
0	5170	424130.313071049769	1761.977489898
0	5181	425169.758836878483	2247.2080769017
0	5188	425690.70659042338	2013.7227508239
0	5199	426521.458891499807	1979.8749083653
0	5206	427379.283781629076	2083.011027379
0	5219	428016.806406341513	1971.6737662442
0	5226	428486.766051733886	1790.9768108279
0	5235	429187.029306404312	1696.7695254832
0	5242	430029.148735944201	2012.3423296027
0	5251	430626.497470820342	2009.3249291182
0	5262	431779.789126385023	2444.8725433555
0	5271	432447.479706304168	2292.7192508709
0	5280	433282.533655967584	2238.3748117369
0	5287	433667.974101332968	1887.8012132831
0	5298	434595.412207022329	1997.9679498821
0	5305	435260.160227213075	1941.1513152067
0	5316	436455.197434639577	2363.8279702049
0	5325	437129.749672254567	2278.5195970908
0	5334	437794.993612496201	2044.7759258095
0	5345	438624.054132588227	2144.8745293077
0	5354	439311.988418083657	2172.7427865844
0	5363	440090.635515516643	2200.5995926447
0	5372	440959.099627006818	2335.0454944186
0	5377	441259.50180273505	1947.5133846514
0	5386	441942.618536157553	1851.9830206409
0	5397	442827.851262968052	1868.7516359612
0	5404	443611.556904483605	2147.9264770634
0	5415	444403.092371067051	2122.4507823586
0	5422	444786.020132806171	1789.2420601565
0	5431	445415.804490074534	1620.2764479909
0	5440	446266.867719031889	1806.2857825309
0	5451	447481.540873926152	2235.0321114063
0	5458	447838.069812906925	1810.6258068234
0	5467	448633.706373861079	1712.6612600405
0	5476	449363.015483552609	1798.3159050811
0	5485	450290.931153064613	1847.4603029899
0	5496	451280.793168302644	2245.8103538956
0	5507	452159.991087857652	2338.6710204184
0	5514	452802.185361133907	2285.7878611889
0	5521	453597.022641263921	2188.8402812183
0	5530	454152.628182666395	1992.6370948087
0	5541	455392.498017428462	2346.7184002977
0	5552	456188.122377684359	2252.8734161519
0	5557	456671.973449131493	1847.7709808853
0	5566	457454.892440792192	1824.0555002354
0	5575	458354.234564490635	2166.1121868063
0	5588	459091.220723977332	2088.7974606827
0	5597	459607.801761338507	1942.6493729465
0	5604	460026.870572380741	1526.3521492481
0	5607	460368.441851343979	1277.2211273666
0	5622	461758.458442194407	2150.6566808559
0	5629	462179.480670159702	1807.8129872214
0	5638	463002.066408796257	1759.2597101815
0	5647	463853.69872916492	2072.4268608727
0	5656	464546.802984690314	1868.5419210233
0	5665	465169.089040718994	1611.8182384875
0	5674	465723.907313402763	1562.1520995162
0	5687	467093.63559074702	2219.3813019432
0	5694	467442.535722395426	2074.1772282869
0	5701	468253.827830543762	2002.4371242151
0	5710	469112.714388594052	2019.078797847
0	5719	469675.676783546826	1697.0267401077
0	5728	470466.685448493829	1663.6257209815
0	5739	471753.895003069212	2407.6712982729
0	5748	472173.792922636514	1991.0812304355
0	5757	473080.192885547896	2156.0503939167
0	5766	473846.332544647177	2039.4426846877
0	5773	474570.934009552023	1909.253855003
0	5782	475404.770443774781	2002.7132899035
0	5793	476337.600046629107	2089.2554893624
0	5800	477183.242553519106	2194.4141047541
0	5811	478056.497960072032	2250.65742312
0	5822	478995.569380559048	2462.5834247097
0	5831	479793.056357279441	2373.6190263648
0	5838	480428.773087402827	2187.3590903822
0	5845	480751.291263476035	1755.721882917
0	5854	481663.537492090858	1870.4811348114
0	5867	482535.643529053799	2089.7317221388
0	5874	483164.968807389981	1833.6759444326
0	5881	483657.607655972264	1689.0960937366
0	5890	484572.164559876567	2036.5210308228
0	5901	485542.717382032446	2186.7882947903
0	5910	486419.86221894624	2190.3655369766
0	5921	487306.116643454901	2271.5061280411
0	5928	487925.321646127871	2195.5691508483
0	5937	488525.734325079269	1950.0959048979
0	5944	488841.583152255065	1535.4665088002
0	5955	489700.781703460983	1586.675038375
0	5964	490277.589556714541	1577.2333913483
0	5975	490834.406964853428	1704.1220099665
0	5984	491208.526304550491	1456.1918523163
0	5991	491679.361765226371	1400.1589131542
0	5998	492013.408336322776	1179.0013714693
0	6007	492715.014397725485	1506.488093175
0	6018	493224.796613724924	1465.6077406369
0	6025	493668.365392321742	1280.0468259025
0	6036	494932.448539976052	2167.9670762736
0	6043	495394.413449289299	1916.8555887882
0	6052	496359.610584843925	2083.5474912543
0	6065	497453.74209531585	2466.8537761085
0	6072	498110.469368286452	2359.1196724679
0	6081	498848.506183270386	2202.5577548426
0	6090	499592.485589766896	2138.743494451
0	6097	500169.842143775916	1848.6824675929
0	6106	501065.910237841329	1998.6709060147
0	6115	502161.37358103881	2256.487099221
0	6124	502796.953275147847	2042.9652349558
0	6135	503936.733308108545	2362.7183049917
0	6144	504747.127266414485	2327.3929467425
0	6151	505610.071595851353	2403.848096123
0	6162	506338.59452409672	2298.9473654889
0	6173	507110.348731745057	2298.5678222962
0	6178	507453.099514916562	1749.2076767609
0	6187	508374.257953511574	1867.0094286092
0	6196	508953.08387889529	1842.7351471502
0	6207	510190.414206963054	2205.4852209985
0	6216	510872.153855860255	2080.551663693
0	6223	511324.590498302154	1831.4764894545
0	6232	512071.134143834956	1733.1953425426
0	6241	512597.403645794861	1587.4693101738
0	6254	513862.301145074912	2095.5126845744
0	6259	514245.902113616489	1958.218799578
0	6264	514619.048627140023	1440.8086759038
0	6281	515666.316170571395	1804.0150254965
0	6288	516211.253492999845	1572.8333515115
0	6299	517011.923357052752	1855.2652832586
0	6308	517619.150652643317	1952.8344820719
0	6317	518423.325239075372	2207.2279121261
0	6324	518829.052495211387	1817.1291381586
0	6333	519884.420221159259	2265.2695685159
0	6340	520219.903328781972	1796.5780897066
0	6351	521194.465503701965	2036.1149116885
0	6358	521567.750587686921	1600.6085024681
0	6367	522283.93502561378	1770.0208453462
0	6376	523053.43800229023	1674.7888237238
0	6387	523752.763947565134	1855.7927762624
0	6394	524354.379835724856	1579.0476853028
0	6403	524791.561343986566	1489.7640955634
0	6414	525939.869195502277	2061.4927663933
0	6423	526755.615744972627	2146.0406765342
0	6434	527464.292290667097	2097.4591836333
0	6439	527898.957659443865	1783.1314065959
0	6450	528927.223682915817	2131.2181020621
0	6459	529692.656645877313	2228.3643552102
0	6468	530335.096455691409	2150.9266024455
0	6475	530694.662792561603	1720.4188691452
0	6484	531761.825655866441	2019.4392984733
0	6493	532613.711732905385	1976.0093618184
0	6502	533373.310502199483	2091.650333209
0	6511	534184.555845614549	2070.6700618844
0	6524	534969.853913504657	1956.4349547029
0	6531	535694.858974870321	2002.5898012798
0	6542	536563.56924762952	2112.1008343063
0	6547	537026.44205158579	2056.5881380811
0	6556	537785.864968970445	2029.5204781462
0	6565	538643.795813201023	2080.2265655715
0	6576	539197.093212045757	1855.2149482537
0	6587	540404.055116185946	2320.8402172197
0	6596	541262.90502073246	2456.95458767
0	6601	541826.391721051214	2232.4979086407
0	6610	542183.454462373656	1779.3993461877
0	6623	543658.814184693647	2395.9091639612
0	6628	543990.041150897769	1982.2768092155
0	6641	545273.059489019243	2467.8892062977
0	6646	545844.07522967088	2185.2610449772
0	6659	546844.667849130957	2441.5904494934
0	6666	547434.706575656338	2161.6470866371
0	6673	547767.058555875002	1696.9514053781
0	6684	549098.637533700123	2253.9696845692
0	6693	549976.004874939128	2344.8181372136
0	6702	550534.139223536506	2264.8551708553
0	6709	550984.443173976645	1863.5644317605
0	6722	552270.247912080988	2277.6447802316
0	6727	552773.782266536757	2125.4071352072
0	6738	553410.815372038662	1880.9327156749
0	6741	553768.764263391524	1498.5163513105
0	6754	554864.267462678283	1941.7409203481
0	6765	556107.175662880793	2328.4516701009
0	6772	556467.661999678269	2012.9332710989
0	6783	557870.116159552738	2515.4110725503
0	6790	558263.330007065116	2021.6899935622
0	6801	559154.050685931026	2027.1331908647
0	6810	559786.189590627356	1823.4554604627
0	6817	560430.929833184956	1633.7830028962
0	6826	560774.298050813405	1490.1034419425
0	6835	561572.811845177813	1715.9253755584
0	6846	562592.843632679461	1975.4709782079
0	6855	563234.627864230453	1750.8615945932
0	6862	563554.743536096095	1574.0603232756
0	6875	564920.444962615175	2265.8501737285
0	6884	565633.337246719776	2125.6659968756
0	6893	566414.364033378689	2367.1364937443
0	6900	567112.599146319582	2192.1541837044
0	6907	567738.753272686182	2105.4160259664
0	6916	568559.005887620179	2144.6418542415
0	6925	569252.672532526804	2036.4132035058
0	6938	570543.149186857073	2458.5905239452
0	6947	571379.812312452151	2412.4205635395
0	6956	572277.341673430084	2555.3747969214
0	6963	572882.859771559044	2339.710584702
0	6970	573214.276658417686	1834.4643459655
0	6981	574330.239246133744	2052.8975727037
0	6992	575103.518570121407	2120.4444278497
0	6999	575822.693152818858	2264.6947748959
0	7006	576187.755226716428	1757.7665699646
0	7015	576681.401635520189	1577.8830653988
0	7024	577917.583295563265	2021.351450868
0	7033	578568.895383691444	2135.3792867158
0	7042	579350.376635044842	2042.9882411845
0	7051	580046.452253172204	1881.6396491602
0	7060	581014.896000456095	2064.0515469946
0	7073	582038.714027171984	2203.1431743409
0	7078	582376.149241067499	1699.0731325932
0	7087	583177.282006759226	1792.9899337236
0	7098	583985.090778255864	1946.3767510839
0	7109	584860.340289166227	1999.7626694385
0	7118	585654.011828172982	2266.3666657638
0	7123	586133.917282428623	2148.3438533731
0	7134	587019.128783047229	2158.788493881
0	7141	587450.434596464068	1796.4227682911
0	7154	588311.319618159935	1855.6933418848
0	7161	588866.234232857853	1820.0366788544
0	7168	589309.687981987402	1738.4927156847
0	7179	590312.423424934998	2001.1038067751
0	7186	590671.513280784741	1479.4794358313
0	7197	591828.717454941974	1916.1370755639
0	7204	592603.344000270621	2004.9298470374
0	7217	593550.771103380278	2269.8580831289
0	7226	594422.295973682806	2298.8889425062
0	7235	595206.08315281573	2278.4922039136
0	7240	595598.293491080434	2047.5223877002
0	7249	596151.486044889346	1729.1900712065
0	7262	597167.284190794484	1961.2010379788
0	7267	597590.993738640131	1861.2959336489
0	7280	598424.418318830461	1881.0883729253
0	7289	599170.040963916139	2002.7567731217
0	7298	600056.8418006413	2076.8515595701
0	7305	600719.138493854584	2294.7201750241
0	7312	601237.251424044403	2067.2104601283
0	7321	602094.7094773874	2037.8676767461
0	7334	603137.656659632953	2282.2681437247
0	7341	603772.281396109643	2220.5111785792
0	7352	604644.574466440858	2247.5938752294
1	3199	260430.420603649697	354
1	3212	261419.127799104905	355
1	3217	262042.822528956464	356
1	3228	262805.714319180703	357
1	3235	263607.205971842637	358
1	3246	264734.347533714032	359
1	3255	265298.026388883597	360
1	3264	266099.105540849275	361
1	3271	266424.64215843939	362
1	3280	267751.006749831147	363
1	3293	268687.52894508653	364
1	3298	269074.740199930972	365
1	3307	269726.776623353368	366
1	3316	270755.382930720231	367
1	3327	271392.816265532753	368
1	3338	272371.370191080503	369
1	3347	273191.869605984546	370
1	3356	273954.912520386286	371
1	3363	274684.486796893187	372
1	3372	275167.744601843886	373
1	3383	275886.021863250069	374
1	3388	276235.028820857413	375
1	3397	276998.288511391736	376
1	3406	277553.137948131196	377
1	3419	278965.111216390513	378
1	3424	279548.375808075078	379
1	3433	279977.67059295439	380
1	3444	281253.300731442876	381
1	3453	281871.460630372174	382
1	3464	282736.468956805773	383
1	3471	283262.096824077897	384
1	3482	284155.704308208086	385
1	3487	284853.488023392864	386
1	3500	285775.236489018434	387
1	3507	286565.004570409664	388
1	3518	287437.108423607433	389
1	3523	287823.362070182347	390
1	3536	289106.65710135364	391
1	3545	289813.208336848775	392
1	3554	290211.670276243249	393
1	3559	290675.216829311112	394
1	3568	291376.754786493266	395
1	3577	292122.682988690222	396
1	3586	292888.887549424553	397
1	3597	294216.169905988509	398
1	3606	295003.192136809239	399
1	3615	295850.611047539871	400
1	3624	296380.525766545918	401
1	3631	296926.095121772971	402
1	3642	297915.934550575922	403
1	3649	298602.634236356253	404
1	3658	299064.306819252679	405
1	3671	300187.193955341364	406
1	3676	300681.430185819055	407
1	3687	301541.10722062179	408
1	3698	302363.494659913714	409
1	3703	302768.596687121327	410
1	3712	303155.12388618664	411
1	3721	304341.512987343605	412
1	3732	305219.629131490375	413
1	3743	306096.11774487422	414
1	3752	306966.187229985382	415
1	3759	307695.686695212509	416
1	3766	308181.720926240097	417
1	3779	309497.894309554259	418
1	3784	309855.161162931482	419
1	3795	310824.094508495192	420
1	3806	312091.602103924389	421
1	3815	312860.199624253447	422
1	3824	313593.844711175199	423
1	3829	313985.181555384781	424
1	3840	314902.520491462211	425
1	3847	315349.452767288322	426
1	3856	316433.659966941934	427
1	3869	317251.666955184203	428
1	3876	317919.191141333443	429
1	3887	318913.274382194516	430
1	3892	319619.200691347954	431
1	3901	320166.008436726418	432
1	3912	321106.790669448686	433
1	3919	321647.82997062431	434
1	3930	322546.162023721275	435
1	3939	323613.558144215507	436
1	3948	324175.081333005813	437
1	3955	324727.383159426984	438
1	3968	326264.065008284537	439
1	3973	326592.61223310606	440
1	3984	327485.212893085567	441
1	3993	328331.313755549503	442
1	4004	329130.639061890555	443
1	4009	329520.438279071835	444
1	4018	330397.039484046412	445
1	4027	331249.764042533947	446
1	4038	331998.760291188967	447
1	4047	332503.704957151797	448
1	4054	333313.597344746825	449
1	4063	334377.364399563534	450
1	4076	335277.901287004364	451
1	4081	335604.495919961495	452
1	4092	336568.478775909183	453
1	4099	337041.42878497952	454
1	4110	338161.831151414675	455
1	4117	338863.409927487385	456
1	4126	339463.533608056617	457
1	4137	340414.22163974495	458
1	4146	341188.620457565425	459
1	4153	341590.215095970793	460
1	4162	342470.230019046007	461
1	4171	343010.484875645501	462
1	4184	343975.078649399815	463
1	4193	344817.754846718175	464
1	4202	345458.438037615282	465
1	4211	346060.552492970613	466
1	4218	346655.406820960355	467
1	4225	347323.185819620279	468
1	4234	348106.233319966135	469
1	4245	348867.787684220833	470
1	4254	349491.617370536563	471
1	4265	350273.175435187308	472
1	4274	350967.165517341359	473
1	4283	351800.103948405026	474
1	4290	352526.976671302705	475
1	4299	353184.633977478384	476
1	4306	353614.630879880874	477
1	4315	354458.632906666039	478
1	4328	355397.417530557154	479
1	4335	355847.724920371561	480
1	4342	356275.279397098361	481
1	4355	357258.329031709595	482
1	4362	357937.997591961189	483
1	4371	358597.479304717868	484
1	4378	358928.096178174032	485
1	4389	360038.628171617179	486
1	4400	360891.768309753402	487
1	4407	361664.306463673725	488
1	4418	362112.327632540851	489
1	4423	362564.149511139854	490
1	4432	363336.202115938082	491
1	4443	364160.144472168773	492
1	4450	364687.773820711314	493
1	4459	365435.261834179997	494
1	4468	366270.995491091176	495
1	4481	367299.151462549358	496
1	4486	367899.213691614583	497
1	4495	368345.045133121326	498
1	4506	369005.818704608842	499
1	4513	369328.831027261927	500
1	4526	370328.318633325412	501
1	4531	370876.789807481705	502
1	4542	371645.952923409655	503
1	4551	372359.207283239826	504
1	4560	373106.37198267506	505
1	4571	374031.148557644351	506
1	4576	374635.432299133404	507
1	4589	375671.35624000804	508
1	4598	376548.599140020101	509
1	4607	377268.949663499384	510
1	4612	377828.193261707215	511
1	4621	378479.381839837893	512
1	4632	379409.677752340227	513
1	4641	380381.922953668997	514
1	4650	381325.796450022624	515
1	4657	381725.096497591601	516
1	4666	382830.28583633715	517
1	4675	383374.91316455418	518
1	4684	384045.227178325893	519
1	4697	385008.02888134496	520
1	4706	385706.746636424229	521
1	4715	386479.718571435676	522
1	4722	387111.851533362658	523
1	4731	387838.362163631261	524
1	4738	388173.078486369938	525
1	4749	389085.993310622887	526
1	4758	389755.453583830984	527
1	4767	390403.413117304461	528
1	4770	390750.929322559403	529
1	4785	391953.058338258432	530
1	4792	392926.948399655537	531
1	4801	393633.970402088032	532
1	4812	394455.372288962842	533
1	4819	394888.376750238256	534
1	4832	395981.299990089627	535
1	4841	396772.799732303264	536
1	4850	397468.514413526299	537
1	4855	397968.73763753103	538
1	4866	398897.692247154209	539
1	4877	399794.135199487227	540
1	4882	400603.660936933029	541
1	4893	401069.55050169492	542
1	4900	401601.066813664528	543
1	4909	402554.56259306522	544
1	4922	403669.68126716094	545
1	4929	404084.629130316916	546
1	4938	404837.868953961897	547
1	4947	405493.61623325387	548
1	4954	406024.849907169136	549
1	4965	407183.957256563025	550
1	4974	407910.612585023063	551
1	4981	408308.282405231165	552
1	4992	409110.426674410719	553
1	5001	409653.722936846334	554
1	5010	410581.623170245458	555
1	5021	411556.910134898517	556
1	5028	412189.707403583471	557
1	5039	413001.495348662156	558
1	5044	413318.353495700303	559
1	5057	414629.325096169505	560
1	5066	415501.310443645362	561
1	5073	416136.816480942089	562
1	5082	416773.217380419393	563
1	5089	417184.480771282707	564
1	5098	418506.921590957809	565
1	5107	418922.839307785053	566
1	5116	419891.682027792577	567
1	5127	420689.287056494523	568
1	5138	421553.561476757769	569
1	5143	422054.767874674891	570
1	5152	422686.081177135948	571
1	5163	423619.244978902881	572
1	5170	424130.313071049769	573
1	5181	425169.758836878483	574
1	5188	425690.70659042338	575
1	5199	426521.458891499807	576
1	5206	427379.283781629076	577
1	5219	428016.806406341513	578
1	5226	428486.766051733886	579
1	5235	429187.029306404312	580
1	5242	430029.148735944201	581
1	5251	430626.497470820342	582
1	5262	431779.789126385023	583
1	5271	432447.479706304168	584
1	5280	433282.533655967584	585
1	5287	433667.974101332968	586
1	5298	434595.412207022329	587
1	5305	435260.160227213075	588
1	5316	436455.197434639577	589
1	5325	437129.749672254567	590
1	5334	437794.993612496201	591
1	5345	438624.054132588227	592
1	5354	439311.988418083657	593
1	5363	440090.635515516643	594
1	5372	440959.099627006818	595
1	5377	441259.50180273505	596
1	5386	441942.618536157553	597
1	5397	442827.851262968052	598
1	5404	443611.556904483605	599
1	5415	444403.092371067051	600
1	5422	444786.020132806171	601
1	5431	445415.804490074534	602
1	5440	446266.867719031889	603
1	5451	447481.540873926152	604
1	5458	447838.069812906925	605
1	5467	448633.706373861079	606
1	5476	449363.015483552609	607
1	5485	450290.931153064613	608
1	5496	451280.793168302644	609
1	5507	452159.991087857652	610
1	5514	452802.185361133907	611
1	5521	453597.022641263921	612
1	5530	454152.628182666395	613
1	5541	455392.498017428462	614
1	5552	456188.122377684359	615
1	5557	456671.973449131493	616
1	5566	457454.892440792192	617
1	5575	458354.234564490635	618
1	5588	459091.220723977332	619
1	5597	459607.801761338507	620
1	5604	460026.870572380741	621
1	5607	460368.441851343979	622
1	5622	461758.458442194407	623
1	5629	462179.480670159702	624
1	5638	463002.066408796257	625
1	5647	463853.69872916492	626
1	5656	464546.802984690314	627
1	5665	465169.089040718994	628
1	5674	465723.907313402763	629
1	5687	467093.63559074702	630
1	5694	467442.535722395426	631
1	5701	468253.827830543762	632
1	5710	469112.714388594052	633
1	5719	469675.676783546826	634
1	5728	470466.685448493829	635
1	5739	471753.895003069212	636
1	5748	472173.792922636514	637
1	5757	473080.192885547896	638
1	5766	473846.332544647177	639
1	5773	474570.934009552023	640
1	5782	475404.770443774781	641
1	5793	476337.600046629107	642
1	5800	477183.242553519106	643
1	5811	478056.497960072032	644
1	5822	478995.569380559048	645
1	5831	479793.056357279441	646
1	5838	480428.773087402827	647
1	5845	480751.291263476035	648
1	5854	481663.537492090858	649
1	5867	482535.643529053799	650
1	5874	483164.968807389981	651
1	5881	483657.607655972264	652
1	5890	484572.164559876567	653
1	5901	485542.717382032446	654
1	5910	486419.86221894624	655
1	5921	487306.116643454901	656
1	5928	487925.321646127871	657
1	5937	488525.734325079269	658
1	5944	488841.583152255065	659
1	5955	489700.781703460983	660
1	5964	490277.589556714541	661
1	5975	490834.406964853428	662
1	5984	491208.526304550491	663
1	5991	491679.361765226371	664
1	5998	492013.408336322776	665
1	6007	492715.014397725485	666
1	6018	493224.796613724924	667
1	6025	493668.365392321742	668
1	6036	494932.448539976052	669
1	6043	495394.413449289299	670
1	6052	496359.610584843925	671
1	6065	497453.74209531585	672
1	6072	498110.469368286452	673
1	6081	498848.506183270386	674
1	6090	499592.485589766896	675
1	6097	500169.842143775916	676
1	6106	501065.910237841329	677
1	6115	502161.37358103881	678
1	6124	502796.953275147847	679
1	6135	503936.733308108545	680
1	6144	504747.127266414485	681
1	6151	505610.071595851353	682
1	6162	506338.59452409672	683
1	6173	507110.348731745057	684
1	6178	507453.099514916562	685
1	6187	508374.257953511574	686
1	6196	508953.08387889529	687
1	6207	510190.414206963054	688
1	6216	510872.153855860255	689
1	6223	511324.590498302154	690
1	6232	512071.134143834956	691
1	6241	512597.403645794861	692
1	6254	513862.301145074912	693
1	6259	514245.902113616489	694
1	6264	514619.048627140023	695
1	6281	515666.316170571395	696
1	6288	516211.253492999845	697
1	6299	517011.923357052752	698
1	6308	517619.150652643317	699
1	6317	518423.325239075372	700
1	6324	518829.052495211387	701
1	6333	519884.420221159259	702
1	6340	520219.903328781972	703
1	6351	521194.465503701965	704
1	6358	521567.750587686921	705
1	6367	522283.93502561378	706
1	6376	523053.43800229023	707
1	6387	523752.763947565134	708
1	6394	524354.379835724856	709
1	6403	524791.561343986566	710
1	6414	525939.869195502277	711
1	6423	526755.615744972627	712
1	6434	527464.292290667097	713
1	6439	527898.957659443865	714
1	6450	528927.223682915817	715
1	6459	529692.656645877313	716
1	6468	530335.096455691409	717
1	6475	530694.662792561603	718
1	6484	531761.825655866441	719
1	6493	532613.711732905385	720
1	6502	533373.310502199483	721
1	6511	534184.555845614549	722
1	6524	534969.853913504657	723
1	6531	535694.858974870321	724
1	6542	536563.56924762952	725
1	6547	537026.44205158579	726
1	6556	537785.864968970445	727
1	6565	538643.795813201023	728
1	6576	539197.093212045757	729
1	6587	540404.055116185946	730
1	6596	541262.90502073246	731
1	6601	541826.391721051214	732
1	6610	542183.454462373656	733
1	6623	543658.814184693647	734
1	6628	543990.041150897769	735
1	6641	545273.059489019243	736
1	6646	545844.07522967088	737
1	6659	546844.667849130957	738
1	6666	547434.706575656338	739
1	6673	547767.058555875002	740
1	6684	549098.637533700123	741
1	6693	549976.004874939128	742
1	6702	550534.139223536506	743
1	6709	550984.443173976645	744
1	6722	552270.247912080988	745
1	6727	552773.782266536757	746
1	6738	553410.815372038662	747
1	6741	553768.764263391524	748
1	6754	554864.267462678283	749
1	6765	556107.175662880793	750
1	6772	556467.661999678269	751
1	6783	557870.116159552738	752
1	6790	558263.330007065116	753
1	6801	559154.050685931026	754
1	6810	559786.189590627356	755
1	6817	560430.929833184956	756
1	6826	560774.298050813405	757
1	6835	561572.811845177813	758
1	6846	562592.843632679461	759
1	6855	563234.627864230453	760
1	6862	563554.743536096095	761
1	6875	564920.444962615175	762
1	6884	565633.337246719776	763
1	6893	566414.364033378689	764
1	6900	567112.599146319582	765
1	6907	567738.753272686182	766
1	6916	568559.005887620179	767
1	6925	569252.672532526804	768
1	6938	570543.149186857073	769
1	6947	571379.812312452151	770
1	6956	572277.341673430084	771
1	6963	572882.859771559044	772
1	6970	573214.276658417686	773
1	6981	574330.239246133744	774
1	6992	575103.518570121407	775
1	6999	575822.693152818858	776
1	7006	576187.755226716428	777
1	7015	576681.401635520189	778
1	7024	577917.583295563265	779
1	7033	578568.895383691444	780
1	7042	579350.376635044842	781
1	7051	580046.452253172204	782
1	7060	581014.896000456095	783
1	7073	582038.714027171984	784
1	7078	582376.149241067499	785
1	7087	583177.282006759226	786
1	7098	583985.090778255864	787
1	7109	584860.340289166227	788
1	7118	585654.011828172982	789
1	7123	586133.917282428623	790
1	7134	587019.128783047229	791
1	7141	587450.434596464068	792
1	7154	588311.319618159935	793
1	7161	588866.234232857853	794
1	7168	589309.687981987402	795
1	7179	590312.423424934998	796
1	7186	590671.513280784741	797
1	7197	591828.717454941974	798
1	7204	592603.344000270621	799
1	7217	593550.771103380278	800
1	7226	594422.295973682806	801
1	7235	595206.08315281573	802
1	7240	595598.293491080434	803
1	7249	596151.486044889346	804
1	7262	597167.284190794484	805
1	7267	597590.993738640131	806
1	7280	598424.418318830461	807
1	7289	599170.040963916139	808
1	7298	600056.8418006413	809
1	7305	600719.138493854584	810
1	7312	601237.251424044403	811
1	7321	602094.7094773874	812
1	7334	603137.656659632953	813
1	7341	603772.281396109643	814
1	7352	604644.574466440858	815

