version 2
run Pipelined_3Teachers-85-20190105-10:57:37-13940
attr configname Pipelined_3Teachers
attr datetime 20190105-10:57:37
attr experiment Pipelined_3Teachers
attr inifile ../simulations/omnetpp.ini
attr iterationvars "$0=\"uniform\""
attr iterationvarsf uniform-
attr measurement "$0=\"uniform\""
attr network PipelinedExamSession
attr processid 13940
attr repetition 85
attr replication #85
attr resultdir results
attr runnumber 85
attr seedset 85
param **.teachersNumber 3
param **.answerTimeDistribution "\"uniform\""
param **.minUniform 300
param **.maxUniform 900
param **.scaleLognormal 6.2854
param **.shapeLognormal 0.4724

vector 0 PipelinedExamSession examinationTime:vector ETV
attr source examFinished
vector 1 PipelinedExamSession studentID:vector ETV
attr source student
0	3203	261145.038765762026	2123.57473257
0	3212	261980.107012158285	2304.5045752544
0	3217	262662.37085522155	2240.7304340042
0	3228	263212.107214378219	2067.0684486162
0	3237	263859.33918440717	1879.2321722489
0	3240	264260.410196660112	1535.3009670507
0	3257	265591.007624985676	2142.1712819953
0	3262	265908.648764854323	1642.5273922272
0	3273	266884.074554778661	1959.9606558681
0	3280	267248.392621614064	1657.3849966284
0	3289	268101.065196935114	1935.2134107146
0	3300	269238.495129765969	2195.8945667837
0	3311	269851.082398043972	2294.4926118013
0	3316	270185.144313192022	1766.2309421226
0	3325	270702.845993265536	1461.6736922879
0	3334	271749.683191347894	1898.6007933039
0	3347	272712.996619194772	2421.0357789416
0	3356	273402.002871036556	2365.0718169753
0	3361	274107.936674589318	2203.3706129529
0	3374	274962.925788760212	2249.9291695654
0	3383	275844.560638815191	2442.5577677786
0	3390	276459.225020650801	2211.1345779151
0	3401	277337.784482119631	2374.8586933594
0	3408	277843.365612253573	1998.8049734384
0	3415	278477.16830000284	1848.7843124662
0	3424	279067.006234545287	1729.2217524257
0	3433	279699.575235229011	1474.9999147374
0	3442	280657.198516745147	1892.0509355608
0	3455	282023.921797005487	2573.9811379462
0	3460	282410.130065493313	2079.9182981718
0	3471	283487.407100899173	2345.0795134529
0	3480	284081.197364861173	2057.2755678557
0	3483	284424.489932879833	1565.2072237339
0	3498	285908.825945947347	2269.9267622083
0	3505	286337.819285318283	1844.9112807401
0	3516	287060.970384813873	1915.5503954273
0	3523	287644.692745758248	1710.9017517418
0	3534	288845.875571155948	2242.3910397571
0	3541	289721.533105568988	2379.3322415091
0	3552	290676.246173121063	2532.5836623553
0	3563	291246.095067076414	2246.5695080347
0	3570	291974.172279797523	2132.4272737373
0	3577	292761.930075148149	2029.2302326765
0	3588	293778.595439856902	2532.5003727805
0	3599	294674.887102749228	2591.396718286
0	3608	295570.716991508409	2595.5265286379
0	3617	296330.242609558656	2528.9334601723
0	3622	296871.587607823341	2196.7005050741
0	3631	297520.821784995526	1950.1047934871
0	3640	298498.408508766471	2168.1658992078
0	3649	299198.001507902547	2003.976493841
0	3660	300479.651871509879	2455.6702375878
0	3669	300925.92949247922	2030.3400190081
0	3680	301940.237306384399	2318.9874014352
0	3687	302738.609445048525	2242.4668862019
0	3698	303187.797815864936	2016.431598505
0	3703	303560.578322969407	1620.341016585
0	3714	304321.785934176326	1527.526150737
0	3725	305215.047769434781	2027.2499535698
0	3730	305520.267782220648	1548.8131251186
0	3739	305984.581169346378	1588.5497949086
0	3750	306806.14152182828	1591.0937523935
0	3757	307506.576131237702	1738.8350657187
0	3766	307883.473664475637	1557.7051330358
0	3777	308687.390234274821	1822.1254822332
0	3784	309171.698335558207	1579.4477441814
0	3793	310589.190951688247	2228.0544920359
0	3804	311338.671226613255	2188.3985589724
0	3815	312309.210597910019	2342.6933670882
0	3822	312993.480906123328	2189.200045215
0	3829	313496.752117993343	2049.3717122823
0	3840	314394.186194194513	2084.9755962845
0	3847	315194.020784413474	2093.0415976793
0	3860	316352.689792681518	2609.4752688892
0	3869	317030.272588972035	2411.6474545095
0	3876	317532.922384701702	2043.7189123593
0	3885	318278.870684467289	1926.1808917858
0	3894	319156.513169780407	2126.2405808084
0	3901	319568.259256705675	1732.0022706874
0	3910	320686.71910897832	2361.9249015581
0	3923	321643.567447224666	2438.9491540845
0	3932	322410.879271477495	2476.157879876
0	3937	322738.759252522175	1952.9131544754
0	3950	323915.352204674889	2271.7847574502
0	3955	324282.94228096496	1872.0630094875
0	3968	325559.452385455404	2457.627899386
0	3977	326122.46246170256	2207.1102570277
0	3982	326425.953032914584	1711.1586692277
0	3991	327146.662328112905	1587.2099426575
0	4000	328055.459510162507	1932.9970484599
0	4013	329233.664616197382	2416.3278238848
0	4020	329756.508549582248	2220.1385804918
0	4027	330159.595019929146	1762.9102407955
0	4040	331581.568699423259	2347.9040832259
0	4047	332326.97188337337	2388.3244494908
0	4056	332876.377588743379	2165.229929192
0	4063	333684.360993281042	2102.7922938578
0	4072	334464.695136342233	2001.2734263204
0	4083	335418.498260714149	2148.2001835015
0	4090	335941.907049855253	1924.3926098105
0	4099	336558.947119535914	1825.4159050528
0	4108	337361.697411071546	1851.9805928227
0	4117	338040.349824400656	1710.4616167489
0	4128	339312.083491869308	2318.4428392444
0	4139	340101.426094863601	2320.6301373895
0	4144	340531.602611113377	1928.5467816051
0	4153	341177.010216331146	1799.5893378742
0	4162	341701.274816924744	1599.8487220611
0	4175	342564.1493158881	1751.8537956756
0	4182	343070.990193961226	1752.9046189506
0	4189	344182.0848972537	2287.7723774873
0	4198	344733.280852669887	2169.1315367818
0	4209	345688.507761480325	2246.2699073832
0	4216	346133.002488501408	1814.303490473
0	4225	346886.745485337489	1854.2512175627
0	4234	348059.926408063658	2217.4086975865
0	4247	349122.687129909211	2451.4525779057
0	4256	349864.985059015491	2305.4952071048
0	4265	350730.870253220239	2382.2991889436
0	4274	351379.15764749054	2256.4705175813
0	4279	352064.377638744229	2199.3925797287
0	4292	353032.911347877272	2302.041094657
0	4299	353664.040397945829	2284.8827504553
0	4310	354461.322491336652	2299.3068030104
0	4317	355056.560371583366	2023.6490237061
0	4326	355702.104406524488	2002.3442794103
0	4337	356567.462699208447	2106.1402078718
0	4342	356989.271926833355	1840.4586357996
0	4353	357736.807631794402	2016.893810872
0	4362	358454.815278528297	1887.3525793199
0	4369	359093.688793759832	1977.3965328466
0	4380	360024.4491994847	2226.3580146711
0	4387	360516.94715595808	1922.2887245938
0	4396	361160.389473522121	1726.2435800862
0	4407	362323.149233590851	2197.7628875524
0	4418	363143.661882262717	2144.4456612691
0	4423	363585.94803661112	2068.4710061643
0	4432	364150.59640193362	1781.0190285556
0	4443	365261.773815751116	2118.1119334884
0	4450	366231.770867714699	2311.4094901364
0	4461	367045.484652835917	2251.6225235537
0	4472	367877.412735717412	2297.5635319948
0	4479	368728.396513033699	2293.1292735972
0	4488	369259.184057358694	2180.6241882965
0	4497	369925.417935987976	2048.0052002706
0	4508	370673.134527867701	1942.8857009858
0	4513	371082.18624405567	1724.7368043289
0	4522	372152.861950825941	2190.6794055831
0	4535	373181.396206375252	2508.2616785076
0	4540	373925.383999664377	2465.7460155431
0	4549	374417.335667833726	2115.9550971352
0	4558	375072.790714865591	1891.3945084903
0	4567	376035.276691289659	2066.6956039611
0	4576	376542.792791174765	1887.1846368536
0	4587	377467.478487314698	2108.6769298185
0	4596	378261.966075422284	2077.5881028268
0	4605	378978.994673816529	2176.1917151045
0	4616	379810.867665940938	2281.893906137
0	4621	380317.65600582589	2034.6276443917
0	4630	380978.951725736303	1983.7222754024
0	4641	382005.307183228476	2194.4395172875
0	4650	382793.590614991306	2126.399533404
0	4661	383595.347635215192	2248.5777786467
0	4670	384432.323366822719	2188.272650633
0	4675	385198.487567715391	2389.5223076921
0	4688	386094.840571191206	2499.492935976
0	4693	386437.233570031866	2004.9102032091
0	4702	387285.750032449185	1971.9244737178
0	4713	388260.313944378912	2165.4733731877
0	4720	388787.349109444812	1926.4534447342
0	4733	390114.841684000611	2519.8786153458
0	4742	390987.566499179274	2530.4215574171
0	4751	391880.754420161292	2566.3043872453
0	4756	392199.2655188777	2084.4238348771
0	4765	392876.339985011191	1888.7734858319
0	4776	393958.189528528646	2077.4351083674
0	4783	394518.78290092577	1919.4636988454
0	4794	395718.95388141279	2444.1791821271
0	4801	396468.469099933327	2302.5388592854
0	4812	397273.880788777069	2230.5076574441
0	4823	398097.449913108766	2260.1360980421
0	4830	398841.491431742951	2131.8297231104
0	4841	399646.820566104769	2315.2767674066
0	4848	400221.996975224509	2124.5470621157
0	4859	401129.150543035984	2134.5583643764
0	4868	401818.667701492131	2171.8471353874
0	4873	402306.882498879031	1956.3162751962
0	4882	403120.048090349928	1990.8975473139
0	4891	404031.724848691419	2213.0571471993
0	4904	404597.244760952935	1909.9099456798
0	4909	404990.447570616424	1414.0439583454
0	4918	405623.940210929185	1553.3654268365
0	4927	406163.253539381594	1566.0087784287
0	4938	406907.537408173129	1648.1353215873
0	4945	407565.141921211079	1606.3973376062
0	4954	407930.777394259394	1360.3978826199
0	4967	409470.919363573239	2375.4931335803
0	4976	410192.232951941014	2450.2376417164
0	4981	410594.606613367841	2004.0858996101
0	4992	411409.890241781295	1938.9708782081
0	4999	411941.580081358598	1749.3471294176
0	5010	412984.581408603163	2125.5136605352
0	5017	413481.379896355839	1850.3220965154
0	5028	414282.57020548922	1817.0674296096
0	5035	414603.15674920571	1505.5709137581
0	5046	415860.033486038492	2208.0973433331
0	5053	416289.376912498892	1948.875214532
0	5064	417061.597342276992	1914.9502634536
0	5071	417766.889015771494	1841.4085897151
0	5082	418555.12015689169	1926.2077707332
0	5089	419454.672827012883	2219.0792836715
0	5102	420364.284958876715	2256.0853635427
0	5107	420722.367419628472	1904.6610966325
0	5120	421891.856571240396	2284.9079685286
0	5129	422541.845289291859	2177.5603304151
0	5138	423327.851338265509	2189.5656249952
0	5143	423973.287224723072	2081.4306534827
0	5152	424523.971986025617	1982.1266967338
0	5163	425334.510823013307	2006.6594847478
0	5172	425680.26978531857	1529.144287901
0	5179	426034.717845311435	1284.9347348325
0	5190	427163.597461720975	1818.4677102137
0	5201	427846.696673333691	1959.5136403106
0	5206	428234.482899354817	1746.7712452635
0	5215	428600.718516530516	1342.7496431395
0	5224	429645.713170431601	1799.0164970979
0	5235	430528.544334461958	2097.7082791273
0	5242	431371.765769412787	2152.2815791424
0	5253	432476.081046229274	2566.9974377844
0	5262	433162.547581270383	2394.4759262726
0	5273	433880.112938582943	2232.7951133251
0	5280	434692.800119798676	2148.9248955622
0	5291	435263.422826025681	2057.3117945809
0	5298	436011.21611804706	2131.1031794641
0	5305	436511.481745960237	1763.8491533697
0	5316	437516.942199552478	2253.5193735268
0	5327	438436.081965174573	2380.9958586004
0	5336	439140.050629153895	2227.4656567723
0	5341	439577.978733507964	1910.1511817425
0	5354	440310.700058145496	1874.6180929709
0	5361	440706.228070752743	1566.1774415988
0	5368	441346.327609755147	1620.8112325519
0	5379	442217.957342276398	1907.2572841309
0	5386	442552.773093665067	1541.960690869
0	5399	443621.934872260366	2024.077294115
0	5404	444000.826143566568	1559.8058458418
0	5415	444793.744911253501	1792.8258930333
0	5422	445512.190688587774	1890.2558163274
0	5435	446636.806930974175	2154.5628943015
0	5440	447037.670517945711	1891.8163017835
0	5453	448078.304712334697	2112.4279844575
0	5460	448779.245260823567	2142.4383298494
0	5471	449478.966404590805	2112.7906059846
0	5478	450012.916179746439	1934.6114674117
0	5487	450827.240554383074	2019.7265789844
0	5494	451419.176876870965	1940.2104722802
0	5505	452341.920509794778	2125.8570795413
0	5512	452921.676336368597	1823.4175348654
0	5525	453650.309192296168	1757.8009484801
0	5534	454520.592231256938	2071.6691600159
0	5543	455306.91593089146	2246.8950899318
0	5550	455797.12462713947	2146.8154348433
0	5561	456833.40530586434	2312.8130746074
0	5566	457427.546060504442	2120.630129613
0	5575	458077.23944624891	1901.3789713383
0	5586	458842.757782246968	2009.3524763826
0	5597	459633.527320576882	2128.6962776911
0	5602	460123.139426205358	1735.1118579973
0	5615	461114.292429992979	2231.3973232638
0	5624	461855.122261634146	2221.5949410573
0	5633	462712.123910989662	2369.9159015436
0	5642	463447.776872478475	2333.4844424855
0	5647	464153.540504677271	2298.4182430431
0	5656	464599.257605429788	1887.1336944401
0	5669	465686.605584947442	2238.828712469
0	5674	466240.747396135752	2004.1992169339
0	5687	467104.345467640136	2278.9768716786
0	5692	467479.961325181697	1793.3557402343
0	5703	468330.770374741454	1921.057736082
0	5710	469128.542066132699	2024.1965984926
0	5721	469824.06434691516	1864.0447164886
0	5732	470612.246941728567	2056.0377330054
0	5737	471463.355479063516	2192.748186551
0	5750	472026.963481027683	2194.282655837
0	5757	472619.45332204928	2007.2063803207
0	5768	473333.246474107778	1834.3330597971
0	5775	473994.274186017042	1967.3107049894
0	5782	474518.046032683974	1811.9321371894
0	5791	474978.204830735972	1644.9583566282
0	5800	476080.994718801281	1895.6769984216
0	5813	476822.804490616597	1872.6462549996
0	5822	477547.436246043123	2232.2639465332
0	5829	478357.211422221787	2150.3954659682
0	5836	478685.239770216919	1862.4352796003
0	5847	479795.337012782745	2247.9007667396
0	5858	480802.598917298071	2406.2318698503
0	5867	481649.530809139885	2550.8075580932
0	5872	482080.198787245952	2132.4356689118
0	5883	482741.956134326808	1939.3572170287
0	5890	483346.165195712872	1696.634386573
0	5899	483934.91383600054	1621.0814042017
0	5912	485236.896099429631	2197.1635357942
0	5919	485815.496935648897	1889.1987095587
0	5926	486413.243299489894	2064.1446970403
0	5939	487538.265000795998	2301.3689013664
0	5948	488383.831282798253	2518.2056704536
0	5955	489020.199535461195	2268.0741847493
0	5962	489399.020075798087	1860.7550750021
0	5971	490065.977172693291	1682.145889895
0	5982	491113.832096429595	2075.6140544079
0	5993	492090.630645677501	2216.5745170321
0	6002	492937.955965334603	2172.4809580017
0	6009	493407.428117981234	2114.2497431953
0	6016	493962.584388256126	1871.9537425786
0	6025	495095.333722187259	2157.3777568527
0	6034	495854.451849823871	2119.7148922831
0	6047	496906.122624361941	2483.1446211319
0	6056	497779.313955176675	2462.5512097031
0	6061	498251.073626149499	2060.7010461856
0	6070	499016.027360502684	2109.9047361407
0	6079	499929.505255864986	2150.1913006883
0	6088	500592.447887733631	2022.8226454463
0	6099	501368.44292613683	2088.633221481
0	6106	502026.215096935683	1870.6276528537
0	6117	502752.355079026947	2031.4954315312
0	6124	503220.392284635509	1739.7973417304
0	6135	504646.811218326964	2346.2348326575
0	6146	505047.094802884438	2123.0916304048
0	6155	505835.376842552849	2054.8971240409
0	6164	506620.283766835981	1971.3959804736
0	6169	507152.814685972461	2105.719883088
0	6182	508028.859677491763	2193.4828349389
0	6189	508662.07564082002	2041.791873984
0	6200	509332.085638912448	1902.562844893
0	6205	509714.385663298943	1685.5259858072
0	6214	510562.857525749186	1747.9584340006
0	6223	511312.916658818775	1980.8310199063
0	6232	511833.626775490173	1925.8958313614
0	6241	512502.175932889857	1727.7190434281
0	6252	513333.163400273824	1854.4117384125
0	6259	513816.266786959076	1681.6375355702
0	6268	514553.262825775944	1751.5222757589
0	6281	515676.618554955401	2107.5553032104
0	6286	515995.148341404327	1918.6495282687
0	6295	516396.421978622727	1477.2593752015
0	6304	517336.649664491468	1660.0311095361
0	6315	518151.373871415907	1994.3605090957
0	6326	518809.176305774653	2064.0723258723
0	6331	519153.74633604666	1694.8098953348
0	6344	520465.994454128721	2197.4754437339
0	6351	521012.7559382469	2203.5796324722
0	6360	522048.271635314503	2467.4908154178
0	6369	522836.157132731803	2370.1626786031
0	6376	523383.846854511701	2103.7898170296
0	6387	524630.885599041411	2484.2905066442
0	6398	525409.862913005107	2363.5286546778
0	6405	526118.708426551946	2355.8363717515
0	6416	526580.231543351017	1938.2230252493
0	6423	527321.372922789358	1911.5100097843
0	6430	527652.020991873049	1474.7290659696
0	6443	528806.571436766587	2226.3398934156
0	6448	529251.488876855053	1855.1862405147
0	6457	529846.153952926449	1754.4933991972
0	6468	531381.593144545383	2575.0217077788
0	6479	532281.426073517702	2581.9234218914
0	6484	532806.734327366627	2219.1355629824
0	6497	533686.460774112544	2298.8557890058
0	6504	534163.366279285452	1881.9402057678
0	6515	535292.655653413436	2356.3601969741
0	6520	535698.768421635083	2012.3076475225
0	6531	536749.613317893868	2352.1983963903
0	6538	537404.163752356594	2111.5080989432
0	6551	538485.518551524779	2296.1192355026
0	6558	539110.475237388214	2040.8876534086
0	6567	539949.082280695489	2216.1096087657
0	6574	540459.429758694074	1973.9112071693
0	6587	541545.858569629542	2197.6005570497
0	6596	542187.358612334407	2233.5711743217
0	6601	542785.278575168974	2082.1974770632
0	6610	543455.513856466911	1909.6552868374
0	6619	543919.846988283149	1732.4883759487
0	6628	544903.326235944457	1824.8137450777
0	6639	545969.069124944559	2058.7594693992
0	6646	546459.279674710757	1805.4737015627
0	6657	547527.358929952658	2077.0495788194
0	6666	548201.421392848767	2197.6447471417
0	6675	548998.300146823801	2307.343606744
0	6686	549839.155656332202	2254.0876284242
0	6691	550311.553326621704	1901.4864327852
0	6700	551208.215717878244	2106.1788090505
0	6709	551524.112300807662	1684.9566444755
0	6718	552359.086905978672	1759.4136923086
0	6729	553276.41137042088	1862.4626061413
0	6738	553884.293823083914	1902.1840912756
0	6745	554591.853547375701	1846.186653804
0	6754	555364.91510574711	1993.2390198112
0	6767	556340.797363640791	2115.6412246171
0	6774	556818.750281212902	1863.314774679
0	6781	557359.480859013325	1567.9837529082
0	6792	558288.046809146231	1947.2494455054
0	6803	559286.61886942578	2143.4280736372
0	6812	560047.352438606373	2144.4126343355
0	6817	560385.579071939043	1932.1172597352
0	6830	561511.431247601337	2224.8123781756
0	6837	562202.864867029763	2155.5124284234
0	6846	562780.16642862936	1954.8295690678
0	6857	563322.676442004792	1811.2451944035
0	6864	563990.226927353121	1637.4454338569
0	6873	564558.603075519256	1659.226027457
0	6880	565065.346849663235	1742.6704076584
0	6893	566367.459223978273	2222.4546213169
0	6898	566996.129124378837	2091.1420469172
0	6907	567505.949367675982	1709.6807749942
0	6916	568431.44566663546	2063.9864426572
0	6927	569521.414869837514	2317.5559099764
0	6936	570307.01165534561	2259.1092208866
0	6947	571176.955937594226	2388.2898165844
0	6952	571901.79685028275	2303.7840830628
0	6961	572487.457213830254	2112.7911358606
0	6972	573337.027424387684	2160.0714867935
0	6983	574113.534008385664	2037.9189220257
0	6990	574723.879632493532	2145.0342920143
0	6999	575452.924276934988	2037.9152962938
0	7006	576159.65142720384	2046.1174188182
0	7019	577479.490010161003	2477.0076585934
0	7026	578293.612759513831	2509.3530415557
0	7033	578898.041546484506	2298.9553822204
0	7042	579467.558476841127	1988.0684666801
0	7051	580437.878588307698	2060.1372314617
0	7062	581219.341921107893	2077.5550334249
0	7069	581520.701383799364	1547.875846317
0	7078	582486.695368867417	1713.4041235317
0	7087	582948.188123758932	1628.9405310061
0	7098	583600.692366762138	1494.2306981888
0	7105	584883.149866294167	2076.0908042081
0	7118	585758.15613870514	2475.5430495366
0	7125	586406.033335905572	2238.3598099463
0	7136	587274.195301299965	2239.335872652
0	7145	587849.650079570761	2091.4939408656
0	7152	588520.148126129111	2109.4386597164
0	7163	589476.100473851016	2201.9051725511
0	7168	589934.959633089653	2085.3095535189
0	7179	590811.568348528867	2115.1947499719
0	7188	591471.361287217637	1995.2608133666
0	7195	591968.280784227004	1640.7217910048
0	7208	593075.109014287641	2227.1535813343
0	7215	593512.543660635179	1908.6667422205
0	7222	594266.457701241648	1891.7456303257
0	7233	595321.113943727737	2246.0049294401
0	7244	596253.440040908804	2580.9881439898
0	7253	597086.850733822262	2556.3307205681
0	7262	597802.266365289739	2422.440205235
0	7269	598242.758768471009	1989.3187275622
0	7280	599114.837252721241	2027.986518899
0	7287	599843.146241270056	2040.8798759803
0	7296	600610.353442886895	2326.2198215816
0	7303	601048.047132510743	1933.2098797895
0	7316	602096.706427959775	2236.0454033129
0	7323	602500.538102164914	1746.8063123524
0	7332	603741.744509059986	2475.2525468823
0	7339	604182.596224173954	2085.8897962142
1	3203	261145.038765762026	354
1	3212	261980.107012158285	355
1	3217	262662.37085522155	356
1	3228	263212.107214378219	357
1	3237	263859.33918440717	358
1	3240	264260.410196660112	359
1	3257	265591.007624985676	360
1	3262	265908.648764854323	361
1	3273	266884.074554778661	362
1	3280	267248.392621614064	363
1	3289	268101.065196935114	364
1	3300	269238.495129765969	365
1	3311	269851.082398043972	366
1	3316	270185.144313192022	367
1	3325	270702.845993265536	368
1	3334	271749.683191347894	369
1	3347	272712.996619194772	370
1	3356	273402.002871036556	371
1	3361	274107.936674589318	372
1	3374	274962.925788760212	373
1	3383	275844.560638815191	374
1	3390	276459.225020650801	375
1	3401	277337.784482119631	376
1	3408	277843.365612253573	377
1	3415	278477.16830000284	378
1	3424	279067.006234545287	379
1	3433	279699.575235229011	380
1	3442	280657.198516745147	381
1	3455	282023.921797005487	382
1	3460	282410.130065493313	383
1	3471	283487.407100899173	384
1	3480	284081.197364861173	385
1	3483	284424.489932879833	386
1	3498	285908.825945947347	387
1	3505	286337.819285318283	388
1	3516	287060.970384813873	389
1	3523	287644.692745758248	390
1	3534	288845.875571155948	391
1	3541	289721.533105568988	392
1	3552	290676.246173121063	393
1	3563	291246.095067076414	394
1	3570	291974.172279797523	395
1	3577	292761.930075148149	396
1	3588	293778.595439856902	397
1	3599	294674.887102749228	398
1	3608	295570.716991508409	399
1	3617	296330.242609558656	400
1	3622	296871.587607823341	401
1	3631	297520.821784995526	402
1	3640	298498.408508766471	403
1	3649	299198.001507902547	404
1	3660	300479.651871509879	405
1	3669	300925.92949247922	406
1	3680	301940.237306384399	407
1	3687	302738.609445048525	408
1	3698	303187.797815864936	409
1	3703	303560.578322969407	410
1	3714	304321.785934176326	411
1	3725	305215.047769434781	412
1	3730	305520.267782220648	413
1	3739	305984.581169346378	414
1	3750	306806.14152182828	415
1	3757	307506.576131237702	416
1	3766	307883.473664475637	417
1	3777	308687.390234274821	418
1	3784	309171.698335558207	419
1	3793	310589.190951688247	420
1	3804	311338.671226613255	421
1	3815	312309.210597910019	422
1	3822	312993.480906123328	423
1	3829	313496.752117993343	424
1	3840	314394.186194194513	425
1	3847	315194.020784413474	426
1	3860	316352.689792681518	427
1	3869	317030.272588972035	428
1	3876	317532.922384701702	429
1	3885	318278.870684467289	430
1	3894	319156.513169780407	431
1	3901	319568.259256705675	432
1	3910	320686.71910897832	433
1	3923	321643.567447224666	434
1	3932	322410.879271477495	435
1	3937	322738.759252522175	436
1	3950	323915.352204674889	437
1	3955	324282.94228096496	438
1	3968	325559.452385455404	439
1	3977	326122.46246170256	440
1	3982	326425.953032914584	441
1	3991	327146.662328112905	442
1	4000	328055.459510162507	443
1	4013	329233.664616197382	444
1	4020	329756.508549582248	445
1	4027	330159.595019929146	446
1	4040	331581.568699423259	447
1	4047	332326.97188337337	448
1	4056	332876.377588743379	449
1	4063	333684.360993281042	450
1	4072	334464.695136342233	451
1	4083	335418.498260714149	452
1	4090	335941.907049855253	453
1	4099	336558.947119535914	454
1	4108	337361.697411071546	455
1	4117	338040.349824400656	456
1	4128	339312.083491869308	457
1	4139	340101.426094863601	458
1	4144	340531.602611113377	459
1	4153	341177.010216331146	460
1	4162	341701.274816924744	461
1	4175	342564.1493158881	462
1	4182	343070.990193961226	463
1	4189	344182.0848972537	464
1	4198	344733.280852669887	465
1	4209	345688.507761480325	466
1	4216	346133.002488501408	467
1	4225	346886.745485337489	468
1	4234	348059.926408063658	469
1	4247	349122.687129909211	470
1	4256	349864.985059015491	471
1	4265	350730.870253220239	472
1	4274	351379.15764749054	473
1	4279	352064.377638744229	474
1	4292	353032.911347877272	475
1	4299	353664.040397945829	476
1	4310	354461.322491336652	477
1	4317	355056.560371583366	478
1	4326	355702.104406524488	479
1	4337	356567.462699208447	480
1	4342	356989.271926833355	481
1	4353	357736.807631794402	482
1	4362	358454.815278528297	483
1	4369	359093.688793759832	484
1	4380	360024.4491994847	485
1	4387	360516.94715595808	486
1	4396	361160.389473522121	487
1	4407	362323.149233590851	488
1	4418	363143.661882262717	489
1	4423	363585.94803661112	490
1	4432	364150.59640193362	491
1	4443	365261.773815751116	492
1	4450	366231.770867714699	493
1	4461	367045.484652835917	494
1	4472	367877.412735717412	495
1	4479	368728.396513033699	496
1	4488	369259.184057358694	497
1	4497	369925.417935987976	498
1	4508	370673.134527867701	499
1	4513	371082.18624405567	500
1	4522	372152.861950825941	501
1	4535	373181.396206375252	502
1	4540	373925.383999664377	503
1	4549	374417.335667833726	504
1	4558	375072.790714865591	505
1	4567	376035.276691289659	506
1	4576	376542.792791174765	507
1	4587	377467.478487314698	508
1	4596	378261.966075422284	509
1	4605	378978.994673816529	510
1	4616	379810.867665940938	511
1	4621	380317.65600582589	512
1	4630	380978.951725736303	513
1	4641	382005.307183228476	514
1	4650	382793.590614991306	515
1	4661	383595.347635215192	516
1	4670	384432.323366822719	517
1	4675	385198.487567715391	518
1	4688	386094.840571191206	519
1	4693	386437.233570031866	520
1	4702	387285.750032449185	521
1	4713	388260.313944378912	522
1	4720	388787.349109444812	523
1	4733	390114.841684000611	524
1	4742	390987.566499179274	525
1	4751	391880.754420161292	526
1	4756	392199.2655188777	527
1	4765	392876.339985011191	528
1	4776	393958.189528528646	529
1	4783	394518.78290092577	530
1	4794	395718.95388141279	531
1	4801	396468.469099933327	532
1	4812	397273.880788777069	533
1	4823	398097.449913108766	534
1	4830	398841.491431742951	535
1	4841	399646.820566104769	536
1	4848	400221.996975224509	537
1	4859	401129.150543035984	538
1	4868	401818.667701492131	539
1	4873	402306.882498879031	540
1	4882	403120.048090349928	541
1	4891	404031.724848691419	542
1	4904	404597.244760952935	543
1	4909	404990.447570616424	544
1	4918	405623.940210929185	545
1	4927	406163.253539381594	546
1	4938	406907.537408173129	547
1	4945	407565.141921211079	548
1	4954	407930.777394259394	549
1	4967	409470.919363573239	550
1	4976	410192.232951941014	551
1	4981	410594.606613367841	552
1	4992	411409.890241781295	553
1	4999	411941.580081358598	554
1	5010	412984.581408603163	555
1	5017	413481.379896355839	556
1	5028	414282.57020548922	557
1	5035	414603.15674920571	558
1	5046	415860.033486038492	559
1	5053	416289.376912498892	560
1	5064	417061.597342276992	561
1	5071	417766.889015771494	562
1	5082	418555.12015689169	563
1	5089	419454.672827012883	564
1	5102	420364.284958876715	565
1	5107	420722.367419628472	566
1	5120	421891.856571240396	567
1	5129	422541.845289291859	568
1	5138	423327.851338265509	569
1	5143	423973.287224723072	570
1	5152	424523.971986025617	571
1	5163	425334.510823013307	572
1	5172	425680.26978531857	573
1	5179	426034.717845311435	574
1	5190	427163.597461720975	575
1	5201	427846.696673333691	576
1	5206	428234.482899354817	577
1	5215	428600.718516530516	578
1	5224	429645.713170431601	579
1	5235	430528.544334461958	580
1	5242	431371.765769412787	581
1	5253	432476.081046229274	582
1	5262	433162.547581270383	583
1	5273	433880.112938582943	584
1	5280	434692.800119798676	585
1	5291	435263.422826025681	586
1	5298	436011.21611804706	587
1	5305	436511.481745960237	588
1	5316	437516.942199552478	589
1	5327	438436.081965174573	590
1	5336	439140.050629153895	591
1	5341	439577.978733507964	592
1	5354	440310.700058145496	593
1	5361	440706.228070752743	594
1	5368	441346.327609755147	595
1	5379	442217.957342276398	596
1	5386	442552.773093665067	597
1	5399	443621.934872260366	598
1	5404	444000.826143566568	599
1	5415	444793.744911253501	600
1	5422	445512.190688587774	601
1	5435	446636.806930974175	602
1	5440	447037.670517945711	603
1	5453	448078.304712334697	604
1	5460	448779.245260823567	605
1	5471	449478.966404590805	606
1	5478	450012.916179746439	607
1	5487	450827.240554383074	608
1	5494	451419.176876870965	609
1	5505	452341.920509794778	610
1	5512	452921.676336368597	611
1	5525	453650.309192296168	612
1	5534	454520.592231256938	613
1	5543	455306.91593089146	614
1	5550	455797.12462713947	615
1	5561	456833.40530586434	616
1	5566	457427.546060504442	617
1	5575	458077.23944624891	618
1	5586	458842.757782246968	619
1	5597	459633.527320576882	620
1	5602	460123.139426205358	621
1	5615	461114.292429992979	622
1	5624	461855.122261634146	623
1	5633	462712.123910989662	624
1	5642	463447.776872478475	625
1	5647	464153.540504677271	626
1	5656	464599.257605429788	627
1	5669	465686.605584947442	628
1	5674	466240.747396135752	629
1	5687	467104.345467640136	630
1	5692	467479.961325181697	631
1	5703	468330.770374741454	632
1	5710	469128.542066132699	633
1	5721	469824.06434691516	634
1	5732	470612.246941728567	635
1	5737	471463.355479063516	636
1	5750	472026.963481027683	637
1	5757	472619.45332204928	638
1	5768	473333.246474107778	639
1	5775	473994.274186017042	640
1	5782	474518.046032683974	641
1	5791	474978.204830735972	642
1	5800	476080.994718801281	643
1	5813	476822.804490616597	644
1	5822	477547.436246043123	645
1	5829	478357.211422221787	646
1	5836	478685.239770216919	647
1	5847	479795.337012782745	648
1	5858	480802.598917298071	649
1	5867	481649.530809139885	650
1	5872	482080.198787245952	651
1	5883	482741.956134326808	652
1	5890	483346.165195712872	653
1	5899	483934.91383600054	654
1	5912	485236.896099429631	655
1	5919	485815.496935648897	656
1	5926	486413.243299489894	657
1	5939	487538.265000795998	658
1	5948	488383.831282798253	659
1	5955	489020.199535461195	660
1	5962	489399.020075798087	661
1	5971	490065.977172693291	662
1	5982	491113.832096429595	663
1	5993	492090.630645677501	664
1	6002	492937.955965334603	665
1	6009	493407.428117981234	666
1	6016	493962.584388256126	667
1	6025	495095.333722187259	668
1	6034	495854.451849823871	669
1	6047	496906.122624361941	670
1	6056	497779.313955176675	671
1	6061	498251.073626149499	672
1	6070	499016.027360502684	673
1	6079	499929.505255864986	674
1	6088	500592.447887733631	675
1	6099	501368.44292613683	676
1	6106	502026.215096935683	677
1	6117	502752.355079026947	678
1	6124	503220.392284635509	679
1	6135	504646.811218326964	680
1	6146	505047.094802884438	681
1	6155	505835.376842552849	682
1	6164	506620.283766835981	683
1	6169	507152.814685972461	684
1	6182	508028.859677491763	685
1	6189	508662.07564082002	686
1	6200	509332.085638912448	687
1	6205	509714.385663298943	688
1	6214	510562.857525749186	689
1	6223	511312.916658818775	690
1	6232	511833.626775490173	691
1	6241	512502.175932889857	692
1	6252	513333.163400273824	693
1	6259	513816.266786959076	694
1	6268	514553.262825775944	695
1	6281	515676.618554955401	696
1	6286	515995.148341404327	697
1	6295	516396.421978622727	698
1	6304	517336.649664491468	699
1	6315	518151.373871415907	700
1	6326	518809.176305774653	701
1	6331	519153.74633604666	702
1	6344	520465.994454128721	703
1	6351	521012.7559382469	704
1	6360	522048.271635314503	705
1	6369	522836.157132731803	706
1	6376	523383.846854511701	707
1	6387	524630.885599041411	708
1	6398	525409.862913005107	709
1	6405	526118.708426551946	710
1	6416	526580.231543351017	711
1	6423	527321.372922789358	712
1	6430	527652.020991873049	713
1	6443	528806.571436766587	714
1	6448	529251.488876855053	715
1	6457	529846.153952926449	716
1	6468	531381.593144545383	717
1	6479	532281.426073517702	718
1	6484	532806.734327366627	719
1	6497	533686.460774112544	720
1	6504	534163.366279285452	721
1	6515	535292.655653413436	722
1	6520	535698.768421635083	723
1	6531	536749.613317893868	724
1	6538	537404.163752356594	725
1	6551	538485.518551524779	726
1	6558	539110.475237388214	727
1	6567	539949.082280695489	728
1	6574	540459.429758694074	729
1	6587	541545.858569629542	730
1	6596	542187.358612334407	731
1	6601	542785.278575168974	732
1	6610	543455.513856466911	733
1	6619	543919.846988283149	734
1	6628	544903.326235944457	735
1	6639	545969.069124944559	736
1	6646	546459.279674710757	737
1	6657	547527.358929952658	738
1	6666	548201.421392848767	739
1	6675	548998.300146823801	740
1	6686	549839.155656332202	741
1	6691	550311.553326621704	742
1	6700	551208.215717878244	743
1	6709	551524.112300807662	744
1	6718	552359.086905978672	745
1	6729	553276.41137042088	746
1	6738	553884.293823083914	747
1	6745	554591.853547375701	748
1	6754	555364.91510574711	749
1	6767	556340.797363640791	750
1	6774	556818.750281212902	751
1	6781	557359.480859013325	752
1	6792	558288.046809146231	753
1	6803	559286.61886942578	754
1	6812	560047.352438606373	755
1	6817	560385.579071939043	756
1	6830	561511.431247601337	757
1	6837	562202.864867029763	758
1	6846	562780.16642862936	759
1	6857	563322.676442004792	760
1	6864	563990.226927353121	761
1	6873	564558.603075519256	762
1	6880	565065.346849663235	763
1	6893	566367.459223978273	764
1	6898	566996.129124378837	765
1	6907	567505.949367675982	766
1	6916	568431.44566663546	767
1	6927	569521.414869837514	768
1	6936	570307.01165534561	769
1	6947	571176.955937594226	770
1	6952	571901.79685028275	771
1	6961	572487.457213830254	772
1	6972	573337.027424387684	773
1	6983	574113.534008385664	774
1	6990	574723.879632493532	775
1	6999	575452.924276934988	776
1	7006	576159.65142720384	777
1	7019	577479.490010161003	778
1	7026	578293.612759513831	779
1	7033	578898.041546484506	780
1	7042	579467.558476841127	781
1	7051	580437.878588307698	782
1	7062	581219.341921107893	783
1	7069	581520.701383799364	784
1	7078	582486.695368867417	785
1	7087	582948.188123758932	786
1	7098	583600.692366762138	787
1	7105	584883.149866294167	788
1	7118	585758.15613870514	789
1	7125	586406.033335905572	790
1	7136	587274.195301299965	791
1	7145	587849.650079570761	792
1	7152	588520.148126129111	793
1	7163	589476.100473851016	794
1	7168	589934.959633089653	795
1	7179	590811.568348528867	796
1	7188	591471.361287217637	797
1	7195	591968.280784227004	798
1	7208	593075.109014287641	799
1	7215	593512.543660635179	800
1	7222	594266.457701241648	801
1	7233	595321.113943727737	802
1	7244	596253.440040908804	803
1	7253	597086.850733822262	804
1	7262	597802.266365289739	805
1	7269	598242.758768471009	806
1	7280	599114.837252721241	807
1	7287	599843.146241270056	808
1	7296	600610.353442886895	809
1	7303	601048.047132510743	810
1	7316	602096.706427959775	811
1	7323	602500.538102164914	812
1	7332	603741.744509059986	813
1	7339	604182.596224173954	814

