version 2
run Pipelined_3Teachers-1-20190105-10:57:18-16008
attr configname Pipelined_3Teachers
attr datetime 20190105-10:57:18
attr experiment Pipelined_3Teachers
attr inifile ../simulations/omnetpp.ini
attr iterationvars "$0=\"uniform\""
attr iterationvarsf uniform-
attr measurement "$0=\"uniform\""
attr network PipelinedExamSession
attr processid 16008
attr repetition 1
attr replication #1
attr resultdir results
attr runnumber 1
attr seedset 1
param **.teachersNumber 3
param **.answerTimeDistribution "\"uniform\""
param **.minUniform 300
param **.maxUniform 900
param **.scaleLognormal 6.2854
param **.shapeLognormal 0.4724

vector 0 PipelinedExamSession examinationTime:vector ETV
attr source examFinished
vector 1 PipelinedExamSession studentID:vector ETV
attr source student
0	3174	260490.599909238538	1638.7557168491
0	3181	260982.50925578179	1404.007871775
0	3190	261810.831594234353	1891.2715740502
0	3201	263065.711459284669	2318.3578422759
0	3210	263860.254164133242	2227.6905282866
0	3219	264631.174853816649	2114.9386636913
0	3230	265217.304256092778	1940.5831413344
0	3239	266105.55135626348	2149.2607501801
0	3246	266700.794439855984	2043.2641713414
0	3257	267494.775406317806	2277.471150225
0	3264	268069.218356721124	1963.6670004576
0	3275	268561.201219260713	1717.5951385405
0	3284	269316.168177360689	1821.3927710429
0	3293	270212.530907336643	2049.6229969896
0	3298	270644.671444874277	2083.4702256136
0	3309	271397.06601924265	2080.897841882
0	3320	272150.000895140713	1937.4699878041
0	3329	272972.128490824273	2181.845531892
0	3336	273459.629320632687	2055.0086804666
0	3345	274288.668360421455	2138.6674652807
0	3356	275159.576631244293	2187.44814042
0	3363	275697.656097309685	2122.8161050938
0	3370	276588.773054396755	2191.2863967475
0	3381	277333.772230753696	2174.1955995094
0	3388	278425.154660129941	2447.8309957311
0	3401	279185.923978686354	2349.2460098583
0	3410	280034.797190409175	2313.1244357675
0	3419	280819.416610384381	2378.9815827738
0	3426	281410.073676751948	2224.1496980656
0	3433	282273.625954007751	2238.8287635986
0	3442	282998.052957141793	2178.6363467574
0	3455	283925.179235637209	2290.1719397865
0	3460	284389.651101361981	1956.4040643163
0	3473	285344.864019798136	2207.3979313485
0	3480	285856.32179696115	1931.1425613239
0	3487	286464.824119024	1903.3268926665
0	3500	287354.905821941814	2010.0418021437
0	3507	288024.363837065196	1866.0027938895
0	3514	288581.006235256812	1974.492900772
0	3527	289431.957597238964	2077.0517752972
0	3532	289860.173536604291	1740.988142509
0	3543	290762.308136047817	1858.5036962293
0	3552	291863.9571240172	2431.9995267782
0	3559	292268.547627003884	2030.4261357989
0	3568	292708.717829966939	1584.7077489831
0	3577	293186.520068720005	1315.8260959201
0	3588	294050.518059125192	1746.9860665966
0	3595	294461.371311731658	1533.0637722742
0	3606	295821.791116520784	2297.5226167124
0	3617	296610.963841527721	2346.3295469061
0	3624	297049.985227128511	1932.9325258266
0	3631	297711.067843157818	1814.1492195893
0	3640	298742.181391920916	2131.2175503932
0	3649	299146.837611263639	1824.4216178544
0	3662	300190.361588448307	2017.545458721
0	3669	300861.10065621326	2055.9537576511
0	3678	301584.731740085429	2195.2825794462
0	3685	301972.035292256645	1781.6737038083
0	3698	303042.410166235662	1997.9748462327
0	3705	303586.688551073915	1955.434444081
0	3714	304462.091995077229	2305.3079597186
0	3725	305029.938207753024	1987.5280415174
0	3734	305767.529560904971	1864.1466186382
0	3739	306096.007933141685	1573.0186245404
0	3750	307089.277637936196	2059.3394301832
0	3757	307918.134736781961	2150.605175877
0	3768	308832.93608268725	2379.0691360831
0	3775	309316.866456298179	2021.0608434398
0	3786	310293.96517854186	2210.3861167096
0	3795	311071.719281421996	2112.0036485139
0	3802	311627.056112978629	1810.3803085629
0	3813	312694.947871472708	2139.308184525
0	3824	313853.831513598583	2431.0067600571
0	3833	314433.329782309032	2155.2493273281
0	3842	314913.378409110031	1860.7098572887
0	3847	315259.079942107222	1405.2484285086
0	3856	316270.949224708623	1837.6194423996
0	3865	316943.187806848458	2029.8093977384
0	3874	317513.905689865373	1757.7486796305
0	3885	318290.792190190427	1802.0523671061
0	3894	318971.640877425693	1837.0318725239
0	3903	319635.505941510223	2077.0245017018
0	3910	320213.023357233055	1846.1354982108
0	3921	321280.943162553034	2272.9227729142
0	3932	322346.014152187877	2497.8299906943
0	3941	323234.469415107765	2550.2954503521
0	3946	323561.37661202813	2106.7877541762
0	3955	324348.376770783239	2002.3626185954
0	3964	325322.055130172544	2087.5857150648
0	3977	325981.338791828626	1894.9010401033
0	3986	326611.991096707084	1906.6783516668
0	3991	327240.545966383093	1791.1866950803
0	4002	328153.29408575783	2171.9552939292
0	4009	328610.052609723084	1998.061513016
0	4018	329410.120536340424	1990.5755661428
0	4027	330415.801107371249	2206.7789829802
0	4036	331219.759661145531	2121.5041842777
0	4045	331858.349984418624	1903.2599247526
0	4058	333072.154125245312	2394.326745579
0	4067	333621.516587678367	2188.4410478175
0	4076	334481.858154991666	2302.099731518
0	4081	334919.170918967599	1847.0167937223
0	4090	335890.735911950493	2269.2193242721
0	4099	336324.516094196613	1842.6579392049
0	4108	337286.327875172744	2005.6052322965
0	4117	337941.61326270553	1936.7168728262
0	4128	338924.077695608164	2150.8635738865
0	4137	339389.428028091813	1854.0203893092
0	4144	339691.295743547405	1405.513512902
0	4153	340942.580285947795	1998.2393011451
0	4162	341605.1955518313	1942.4697523937
0	4171	341994.939304562311	1567.2755161766
0	4180	342876.828859420519	1611.3151086029
0	4189	343632.587752304997	1750.8892484475
0	4198	344129.044449096571	1733.4736287128
0	4207	344623.766045691471	1382.2051175404
0	4218	345634.370612539376	1766.9098262675
0	4225	345958.427833858902	1670.1827206649
0	4236	346981.031056819509	2014.983094018
0	4245	347867.748397635322	2031.7274131346
0	4252	348378.009581007089	1963.4487886447
0	4263	349032.768439315285	1821.3264299557
0	4272	349643.914911802884	1773.3246251475
0	4279	350186.907652113613	1611.334402347
0	4292	351456.750291259985	2393.1828717235
0	4297	352026.833054143961	2120.3195792623
0	4308	352608.727575000401	1978.3935674932
0	4319	353791.181367030393	2334.4310757704
0	4326	354350.970273558076	2123.5455308575
0	4333	355033.024993026654	2111.8626551237
0	4344	356218.882340239386	2427.700973209
0	4355	357082.191947149138	2445.4233859666
0	4364	357887.931849947224	2429.114260152
0	4371	358589.864651626001	2238.7860741466
0	4382	359541.268021613385	2459.0760744642
0	4387	359893.863783543955	2005.9319335967
0	4400	360727.139705792096	2051.5292270109
0	4409	361604.862395022091	2063.5943734087
0	4414	362229.018958797705	2271.0714509245
0	4427	363288.318634126362	2561.1789283343
0	4436	364091.10541460107	2486.243019579
0	4443	364762.705924920765	2288.5417597834
0	4450	365109.33466767895	1821.0160335526
0	4459	366041.458829725189	1950.3534151241
0	4468	366599.329358618734	1614.6199087612
0	4477	367490.412522247089	2012.425366044
0	4486	368260.464356420589	1914.7857655305
0	4495	369225.221759593143	2085.9051630367
0	4506	369863.995265727891	1907.9516848549
0	4513	370665.864471718697	2057.3420525528
0	4526	371593.606057064637	2203.4699252341
0	4531	372040.421392489254	2030.8340665419
0	4540	372837.48046355325	1971.1837446783
0	4549	373458.547154115542	1864.9410970509
0	4560	374253.110885247617	1845.4833309632
0	4567	375088.851421047031	1971.1449261289
0	4580	375618.459539115459	1961.958661722
0	4589	376255.558682000295	1977.2273273673
0	4594	376564.014057721973	1406.689350307
0	4605	377377.054153801904	1758.5946146864
0	4614	378153.801168501408	1898.2424865011
0	4621	378658.639708813311	1673.5136050265
0	4632	379788.439047150345	2164.6139512304
0	4641	380313.069061003657	2084.99601027
0	4650	381001.73143814321	1930.7509229053
0	4657	381387.955442396955	1550.2658392768
0	4666	381962.649778649242	1581.070451159
0	4677	382961.283633392336	1888.7772273738
0	4684	383791.748951654914	2226.1505664792
0	4693	384490.793573996085	2052.3262043484
0	4706	385410.018589161369	2162.4228358269
0	4715	386024.941890779915	1892.2127292026
0	4724	386839.432589616659	2214.5118299872
0	4733	387413.619467848944	2003.6008786876
0	4742	388189.332874026182	2164.3909832463
0	4747	388492.937391903284	1653.5048022866
0	4758	389355.730842892113	1942.1113750432
0	4765	389913.612115010652	1724.2792409845
0	4778	390815.520148398387	1957.9554700758
0	4783	391168.44416856769	1592.4581645988
0	4794	392224.89893222231	2187.7228519879
0	4801	392942.628555698353	2127.1084073
0	4810	393642.332404665682	2010.186370695
0	4819	394377.79683088887	1932.4369466398
0	4828	395338.684600498559	2060.2928574197
0	4841	396416.67350381616	2278.3925992437
0	4846	397081.972204986992	2104.7682719305
0	4857	397660.189756751093	1829.8648410011
0	4864	397968.450267054173	1551.776763238
0	4875	398824.680814566123	1546.4892135467
0	4882	399330.497679999131	1615.382637782
0	4893	400652.466265205326	2387.316846801
0	4902	401245.331959985229	2117.0934069436
0	4909	401884.252525353837	1988.1673971657
0	4918	402625.609597843172	1885.4493389837
0	4931	403695.842295046927	2192.6793810446
0	4940	404411.258369777383	2178.0329670757
0	4947	405024.29384593855	2077.9700533021
0	4958	405556.919458229126	1861.0771631822
0	4967	406239.76602475162	1828.5076549742
0	4974	406918.754001148076	1884.987816168
0	4981	407497.325841290907	1940.4063830618
0	4994	408254.737660288842	2014.9716355372
0	5001	408888.900248380409	1924.7442633379
0	5010	409649.51085462238	2017.2016541474
0	5019	410631.416640384154	2376.6789800953
0	5028	411333.258307445825	2292.2524793074
0	5035	411836.796709522636	1970.5912472215
0	5044	412733.840515371442	1978.2856782898
0	5055	413639.185010176182	2018.1032043882
0	5066	414648.845228645981	2311.9111726061
0	5075	415352.792972372875	2318.5617280193
0	5084	416017.002251325205	2174.8731872533
0	5093	416744.241566956073	2095.3963383101
0	5100	417222.409818554327	1869.6168461815
0	5111	418376.687141368195	2359.684890043
0	5118	419056.771546835109	2312.529979879
0	5125	419392.970436578646	1832.9382979777
0	5134	420307.772542862252	1931.0854014941
0	5145	421225.739952083707	2116.3180069998
0	5152	421616.774876369193	1925.0002026558
0	5161	422575.371005432711	1993.9187151846
0	5172	423169.975036243008	1901.4713615645
0	5181	423860.515392897682	1908.5356081836
0	5190	424670.497328136148	2079.120277008
0	5199	425449.908215180071	2005.2651135251
0	5210	426304.730725893782	2200.5257669371
0	5217	426897.700117947565	2042.8225341719
0	5224	427229.496845137359	1727.002937207
0	5237	428488.538088463278	2183.8073625695
0	5244	428853.043416934119	1653.5047838464
0	5253	429813.702989369662	2194.4670308847
0	5262	430478.034733794661	1989.4966453314
0	5271	431176.760383788528	2014.0200485475
0	5280	431877.834087470578	1870.5736806616
0	5289	432297.08963027227	1603.85274156
0	5298	433045.29252704236	1629.9440364819
0	5305	433384.16797136891	1441.6711251251
0	5314	434581.570407282593	2226.157003222
0	5327	435222.338921763035	1992.4689060543
0	5336	435908.878137962925	1901.8274236936
0	5343	436247.8013291024	1613.2977162022
0	5350	436808.131354814428	1585.7924330514
0	5359	437265.185424406114	1356.3072864432
0	5372	438777.168721519443	2430.7675637305
0	5379	439519.877531658891	2290.2141474187
0	5386	440151.538085890967	2262.0593789499
0	5399	441079.796589771317	2302.6278682519
0	5404	441527.107800124244	1985.2930001914
0	5415	442533.035605028303	2138.6524773203
0	5426	443679.892206145482	2600.0956163742
0	5431	444018.795724818515	2092.3875928391
0	5444	445384.831140562923	2575.390994316
0	5453	446144.432991044627	2464.5407848991
0	5458	446463.091235328497	1975.2914845012
0	5467	447088.516537053541	1703.6853964906
0	5478	448063.784626079755	1919.3516350351
0	5485	448634.154361579599	1700.6684486289
0	5494	449531.942714704233	2146.7336093076
0	5505	450336.9282098953	2063.1648967043
0	5512	450933.834060095283	1835.1292158477
0	5523	451711.61840320568	1817.7272146102
0	5532	452319.550046185063	1659.1776075773
0	5541	452895.995520567553	1618.5029852204
0	5548	453482.203318085553	1684.2932271771
0	5557	454512.812136020543	1971.5026037302
0	5566	455184.798127831923	1907.3523409199
0	5575	455527.132866019415	1680.3597796708
0	5584	456322.687459224867	1644.3155917805
0	5595	457348.351554852011	1848.0954352766
0	5602	458041.677943524005	2062.1977047063
0	5613	458732.038526656138	2003.0727103818
0	5620	459097.668275004285	1530.6826983579
0	5631	460141.083655133875	1971.992370626
0	5640	460907.342592207747	1858.6914684623
0	5649	461795.088918786528	2042.6131599583
0	5658	462447.317503625558	2094.88232187
0	5669	463443.467107275532	2331.3007178251
0	5678	464204.133424675123	2296.3470866438
0	5685	464869.290206674517	2183.32651807
0	5692	465228.03997672166	1784.5728694461
0	5701	465918.844575667785	1714.7111509927
0	5714	467019.368400983543	2101.3577798847
0	5723	467670.086103491516	2212.8800468054
0	5728	467980.031634494693	1656.2701958232
0	5737	468588.59337475154	1569.224973768
0	5748	469473.718228563697	1803.6321250722
0	5755	470083.169041760297	1907.5484739617
0	5766	471120.539047569067	2188.4149302263
0	5775	472059.976990381287	2310.3231607005
0	5786	472934.729130053924	2550.3281037323
0	5795	473683.158369502084	2498.065438075
0	5804	474267.562144529106	2183.7881668936
0	5811	475082.804158329995	2148.0750282761
0	5818	475676.543133985283	1993.3847644832
0	5827	476338.073683250727	2070.5115387216
0	5836	476928.018212132188	1798.104828503
0	5845	477932.718460634383	2026.8173913471
0	5854	478491.318987216833	1748.2616975438
0	5867	479268.336841324377	1699.0589146502
0	5872	479700.41404408406	1673.3808778692
0	5883	480784.465430164742	2219.560169382
0	5892	481222.542627900871	1954.2057865765
0	5899	482048.220557346973	2077.026214404
0	5910	482655.235433019731	1789.1529733781
0	5917	483158.419645903666	1470.2221384272
0	5926	483889.744658907909	1759.4259286299
0	5935	484705.7109054644	1932.4669175316
0	5948	485890.529364533756	2346.3990328833
0	5953	486483.809645148028	2115.2037519962
0	5962	487118.398451618884	1879.1111867409
0	5971	487697.423124639351	1806.8937601056
0	5980	488486.263659037684	1871.5152427554
0	5991	489698.116199439425	2450.56739375
0	6002	490478.665458178182	2346.4745733887
0	6009	491065.813587605988	2232.3447420727
0	6016	491816.838220367243	2102.8591255657
0	6025	492460.454265307669	1981.7888071295
0	6036	493130.77603708956	1818.2141735684
0	6047	494000.402174005318	1930.2610512357
0	6052	494322.669774480197	1618.3524379972
0	6065	495541.781533230129	2138.8241806068
0	6070	496100.064602913368	2099.6624289081
0	6079	496701.28857227977	1984.5731527079
0	6088	497137.957388581741	1596.1758553516
0	6093	497630.566899385336	1328.1119802967
0	6108	498880.446852045167	1956.3868334983
0	6115	499669.941152399439	1971.1268506944
0	6124	500316.84333616871	1937.7947644796
0	6133	500868.007111502845	1730.4607096128
0	6144	502006.615636311504	2205.9991664719
0	6155	502835.8659947757	2308.2860123366
0	6164	503659.706886252421	2461.7115288042
0	6173	504468.684780132058	2447.8703806177
0	6182	505339.750197529825	2503.8842027541
0	6189	505905.370949814128	2245.6640635617
0	6196	506286.768724210593	1818.0839440785
0	6207	507075.692496215957	1735.9422986861
0	6214	507424.666883703354	1475.9042256977
0	6225	508447.51344881955	1945.7560571842
0	6234	509568.731712643089	2248.6768347211
0	6243	510014.252370223434	2088.0008575972
0	6254	510721.51888785887	1916.5185341612
0	6259	511262.885283166575	1653.0316357501
0	6270	512462.916818819973	2333.2623752765
0	6279	513328.129505831781	2606.6106179729
0	6288	513835.046313889357	2238.4650677908
0	6295	514750.754022644866	2267.9182969965
0	6304	515505.793716246295	2138.8655553572
0	6315	516624.657377321306	2419.0187865403
0	6322	516963.604328921098	1899.2993950378
0	6333	518168.097799178246	2239.2960869707
0	6342	518831.053924793411	2191.7213812005
0	6349	519229.087861580808	1767.500404967
0	6360	520164.623557683114	1982.2079265956
0	6371	521009.597425768186	2087.7568517346
0	6376	521387.903827987645	1883.5736435372
0	6385	522460.346682183479	2167.2449909616
0	6396	523153.461806522717	2143.8643807545
0	6403	523771.13438691016	1956.0694766231
0	6416	525031.296764826436	2496.6076428071
0	6425	525781.611167220433	2444.8047224432
0	6434	526619.802210805972	2412.1171440929
0	6439	527100.037390412797	2068.7406255864
0	6452	528123.761462839355	2342.1502956189
0	6457	528466.856537852471	1847.0543270465
0	6468	529278.154874732752	1862.616144307
0	6477	530064.691430144047	1940.9299673047
0	6484	530533.975099353155	1751.1348222848
0	6495	531650.302797742223	2192.5697422586
0	6502	532019.364621955936	1748.6065342091
0	6511	532866.904711257701	1765.8933179453
0	6522	533606.973709864577	1865.3481184971
0	6529	534135.548042692279	1707.2412308771
0	6540	535390.543858381024	2227.2378877737
0	6549	536209.07466053035	2208.4711119533
0	6556	536716.482186969406	2132.8618383966
0	6565	537474.349337909407	2082.3853061534
0	6578	538269.64033101689	1999.5360468049
0	6583	538748.352093854956	1802.99585131
0	6596	539914.348629489577	2309.601214109
0	6603	540372.644523158705	2103.0041921418
0	6614	541353.289989475197	2307.8670598101
0	6623	541913.982531521506	1999.6339020319
0	6632	542764.546342380382	2163.0119011737
0	6637	543454.807828506492	2101.5178390313
0	6648	544275.322382524647	2361.3398510031
0	6657	545146.580904163458	2382.0345617831
0	6666	545639.172727754377	2026.6535764094
0	6669	545989.868192235045	1583.802150283
0	6682	546975.856055645309	1742.0998969115
0	6691	548049.662647582628	1971.3289691135
0	6700	548630.289696436412	1819.1740086302
0	6713	549539.306486304886	2112.6462817658
0	6718	549846.564543060995	1537.9158378113
0	6729	550834.528703196011	2085.2664553095
0	6740	551983.685391582585	2444.3789052777
0	6745	552315.313306963108	2088.7532731052
0	6758	553469.551356229967	2384.356958326
0	6767	554281.537188123948	2297.8517965414
0	6774	554934.260089276395	2322.0784096979
0	6781	555525.389097025655	2055.8377407957
0	6792	556517.174873873629	2235.6376857497
0	6799	556871.056706691198	1730.9124099556
0	6812	558424.993955483698	2430.8118271641
0	6817	558980.790774989911	2153.3757680096
0	6828	559992.132893018462	2284.646619251
0	6835	560468.681991845407	2043.6880363617
0	6844	560924.654079135545	1617.0101326425
0	6857	562147.232276899778	2055.8904299978
0	6866	562850.715868966692	2008.3897804376
0	6873	563359.724939474874	1928.3810810186
0	6880	564068.712140852624	1921.4798639528
0	6891	564956.235603941643	2105.519734975
0	6898	565346.824040729591	1773.5201291274
0	6907	566104.541672347152	1812.9486422986
0	6920	567432.015042845198	2469.2615653854
0	6929	568211.327151674816	2353.032841254
0	6936	568745.986623829269	2119.0648202319
0	6943	569367.788546578997	1935.7735037338
0	6954	570303.683336824217	2092.3561851494
0	6965	571078.164709825107	2131.1283818912
0	6970	571437.829049723261	1701.5065647662
0	6981	572321.887722658032	1829.5641881414
0	6988	572854.274075618052	1776.1093657929
0	6997	573715.888857236171	2082.3812750168
0	7010	574717.643613880539	2279.6781972516
0	7019	575140.30194855299	1842.5375696272
0	7024	575581.348532019222	1577.0120734815
0	7037	576339.670638553837	1622.0270246733
0	7042	576654.956378554964	1514.654430002
0	7055	577898.331478424409	2181.0682813637
0	7060	578396.566524636039	2056.8958860822
0	7069	579113.393613975534	2036.0843583941
0	7082	580243.748279940376	2345.416801516
0	7087	580807.89197590206	2103.4640183207
0	7096	581459.570218110496	2034.6336258575
0	7109	582513.968389201948	2270.2201092616
0	7114	582996.964773908296	1957.8310491052
0	7125	584160.43929462325	2503.5776055884
0	7132	584658.346031047443	2144.3776418455
0	7141	585494.467532308811	2157.9317780212
0	7150	586097.438700310925	1915.6557837501
0	7163	587434.889166941905	2475.316746952
0	7172	588244.750512996727	2445.6455240026
0	7177	588619.942052476147	1993.6843451578
0	7188	589220.368359424212	1785.4791924823
0	7199	590343.659023381808	2098.9085103851
0	7206	591136.768647003957	2307.225632295
0	7213	591656.675974326246	2145.9103839006
0	7224	592654.430779488796	2310.771756107
0	7235	593482.044988498131	2334.9583385512
0	7240	593984.092588070819	1963.2250327617
0	7253	595156.68892362159	2349.3623005226
0	7262	596052.309446688781	2570.2644581906
0	7271	596838.418165175284	2461.2061728258
0	7276	597183.162609860341	2026.4736862388
0	7287	598190.878549218217	2138.5691025294
0	7298	598939.789775060529	2101.3716098852
0	7303	599400.536834215785	2015.4684218578
0	7314	600600.1124419738	2341.0338980611
0	7321	601015.521990973542	2075.732215913
0	7332	601642.943143565247	1808.6039923131
0	7341	602438.51810954515	1735.6361280195
0	7348	603030.834452714809	1791.0231130198
0	7359	603691.873458679804	1815.4928659089
0	7370	604538.357141520867	1893.758432474
1	3174	260490.599909238538	351
1	3181	260982.50925578179	352
1	3190	261810.831594234353	353
1	3201	263065.711459284669	354
1	3210	263860.254164133242	355
1	3219	264631.174853816649	356
1	3230	265217.304256092778	357
1	3239	266105.55135626348	358
1	3246	266700.794439855984	359
1	3257	267494.775406317806	360
1	3264	268069.218356721124	361
1	3275	268561.201219260713	362
1	3284	269316.168177360689	363
1	3293	270212.530907336643	364
1	3298	270644.671444874277	365
1	3309	271397.06601924265	366
1	3320	272150.000895140713	367
1	3329	272972.128490824273	368
1	3336	273459.629320632687	369
1	3345	274288.668360421455	370
1	3356	275159.576631244293	371
1	3363	275697.656097309685	372
1	3370	276588.773054396755	373
1	3381	277333.772230753696	374
1	3388	278425.154660129941	375
1	3401	279185.923978686354	376
1	3410	280034.797190409175	377
1	3419	280819.416610384381	378
1	3426	281410.073676751948	379
1	3433	282273.625954007751	380
1	3442	282998.052957141793	381
1	3455	283925.179235637209	382
1	3460	284389.651101361981	383
1	3473	285344.864019798136	384
1	3480	285856.32179696115	385
1	3487	286464.824119024	386
1	3500	287354.905821941814	387
1	3507	288024.363837065196	388
1	3514	288581.006235256812	389
1	3527	289431.957597238964	390
1	3532	289860.173536604291	391
1	3543	290762.308136047817	392
1	3552	291863.9571240172	393
1	3559	292268.547627003884	394
1	3568	292708.717829966939	395
1	3577	293186.520068720005	396
1	3588	294050.518059125192	397
1	3595	294461.371311731658	398
1	3606	295821.791116520784	399
1	3617	296610.963841527721	400
1	3624	297049.985227128511	401
1	3631	297711.067843157818	402
1	3640	298742.181391920916	403
1	3649	299146.837611263639	404
1	3662	300190.361588448307	405
1	3669	300861.10065621326	406
1	3678	301584.731740085429	407
1	3685	301972.035292256645	408
1	3698	303042.410166235662	409
1	3705	303586.688551073915	410
1	3714	304462.091995077229	411
1	3725	305029.938207753024	412
1	3734	305767.529560904971	413
1	3739	306096.007933141685	414
1	3750	307089.277637936196	415
1	3757	307918.134736781961	416
1	3768	308832.93608268725	417
1	3775	309316.866456298179	418
1	3786	310293.96517854186	419
1	3795	311071.719281421996	420
1	3802	311627.056112978629	421
1	3813	312694.947871472708	422
1	3824	313853.831513598583	423
1	3833	314433.329782309032	424
1	3842	314913.378409110031	425
1	3847	315259.079942107222	426
1	3856	316270.949224708623	427
1	3865	316943.187806848458	428
1	3874	317513.905689865373	429
1	3885	318290.792190190427	430
1	3894	318971.640877425693	431
1	3903	319635.505941510223	432
1	3910	320213.023357233055	433
1	3921	321280.943162553034	434
1	3932	322346.014152187877	435
1	3941	323234.469415107765	436
1	3946	323561.37661202813	437
1	3955	324348.376770783239	438
1	3964	325322.055130172544	439
1	3977	325981.338791828626	440
1	3986	326611.991096707084	441
1	3991	327240.545966383093	442
1	4002	328153.29408575783	443
1	4009	328610.052609723084	444
1	4018	329410.120536340424	445
1	4027	330415.801107371249	446
1	4036	331219.759661145531	447
1	4045	331858.349984418624	448
1	4058	333072.154125245312	449
1	4067	333621.516587678367	450
1	4076	334481.858154991666	451
1	4081	334919.170918967599	452
1	4090	335890.735911950493	453
1	4099	336324.516094196613	454
1	4108	337286.327875172744	455
1	4117	337941.61326270553	456
1	4128	338924.077695608164	457
1	4137	339389.428028091813	458
1	4144	339691.295743547405	459
1	4153	340942.580285947795	460
1	4162	341605.1955518313	461
1	4171	341994.939304562311	462
1	4180	342876.828859420519	463
1	4189	343632.587752304997	464
1	4198	344129.044449096571	465
1	4207	344623.766045691471	466
1	4218	345634.370612539376	467
1	4225	345958.427833858902	468
1	4236	346981.031056819509	469
1	4245	347867.748397635322	470
1	4252	348378.009581007089	471
1	4263	349032.768439315285	472
1	4272	349643.914911802884	473
1	4279	350186.907652113613	474
1	4292	351456.750291259985	475
1	4297	352026.833054143961	476
1	4308	352608.727575000401	477
1	4319	353791.181367030393	478
1	4326	354350.970273558076	479
1	4333	355033.024993026654	480
1	4344	356218.882340239386	481
1	4355	357082.191947149138	482
1	4364	357887.931849947224	483
1	4371	358589.864651626001	484
1	4382	359541.268021613385	485
1	4387	359893.863783543955	486
1	4400	360727.139705792096	487
1	4409	361604.862395022091	488
1	4414	362229.018958797705	489
1	4427	363288.318634126362	490
1	4436	364091.10541460107	491
1	4443	364762.705924920765	492
1	4450	365109.33466767895	493
1	4459	366041.458829725189	494
1	4468	366599.329358618734	495
1	4477	367490.412522247089	496
1	4486	368260.464356420589	497
1	4495	369225.221759593143	498
1	4506	369863.995265727891	499
1	4513	370665.864471718697	500
1	4526	371593.606057064637	501
1	4531	372040.421392489254	502
1	4540	372837.48046355325	503
1	4549	373458.547154115542	504
1	4560	374253.110885247617	505
1	4567	375088.851421047031	506
1	4580	375618.459539115459	507
1	4589	376255.558682000295	508
1	4594	376564.014057721973	509
1	4605	377377.054153801904	510
1	4614	378153.801168501408	511
1	4621	378658.639708813311	512
1	4632	379788.439047150345	513
1	4641	380313.069061003657	514
1	4650	381001.73143814321	515
1	4657	381387.955442396955	516
1	4666	381962.649778649242	517
1	4677	382961.283633392336	518
1	4684	383791.748951654914	519
1	4693	384490.793573996085	520
1	4706	385410.018589161369	521
1	4715	386024.941890779915	522
1	4724	386839.432589616659	523
1	4733	387413.619467848944	524
1	4742	388189.332874026182	525
1	4747	388492.937391903284	526
1	4758	389355.730842892113	527
1	4765	389913.612115010652	528
1	4778	390815.520148398387	529
1	4783	391168.44416856769	530
1	4794	392224.89893222231	531
1	4801	392942.628555698353	532
1	4810	393642.332404665682	533
1	4819	394377.79683088887	534
1	4828	395338.684600498559	535
1	4841	396416.67350381616	536
1	4846	397081.972204986992	537
1	4857	397660.189756751093	538
1	4864	397968.450267054173	539
1	4875	398824.680814566123	540
1	4882	399330.497679999131	541
1	4893	400652.466265205326	542
1	4902	401245.331959985229	543
1	4909	401884.252525353837	544
1	4918	402625.609597843172	545
1	4931	403695.842295046927	546
1	4940	404411.258369777383	547
1	4947	405024.29384593855	548
1	4958	405556.919458229126	549
1	4967	406239.76602475162	550
1	4974	406918.754001148076	551
1	4981	407497.325841290907	552
1	4994	408254.737660288842	553
1	5001	408888.900248380409	554
1	5010	409649.51085462238	555
1	5019	410631.416640384154	556
1	5028	411333.258307445825	557
1	5035	411836.796709522636	558
1	5044	412733.840515371442	559
1	5055	413639.185010176182	560
1	5066	414648.845228645981	561
1	5075	415352.792972372875	562
1	5084	416017.002251325205	563
1	5093	416744.241566956073	564
1	5100	417222.409818554327	565
1	5111	418376.687141368195	566
1	5118	419056.771546835109	567
1	5125	419392.970436578646	568
1	5134	420307.772542862252	569
1	5145	421225.739952083707	570
1	5152	421616.774876369193	571
1	5161	422575.371005432711	572
1	5172	423169.975036243008	573
1	5181	423860.515392897682	574
1	5190	424670.497328136148	575
1	5199	425449.908215180071	576
1	5210	426304.730725893782	577
1	5217	426897.700117947565	578
1	5224	427229.496845137359	579
1	5237	428488.538088463278	580
1	5244	428853.043416934119	581
1	5253	429813.702989369662	582
1	5262	430478.034733794661	583
1	5271	431176.760383788528	584
1	5280	431877.834087470578	585
1	5289	432297.08963027227	586
1	5298	433045.29252704236	587
1	5305	433384.16797136891	588
1	5314	434581.570407282593	589
1	5327	435222.338921763035	590
1	5336	435908.878137962925	591
1	5343	436247.8013291024	592
1	5350	436808.131354814428	593
1	5359	437265.185424406114	594
1	5372	438777.168721519443	595
1	5379	439519.877531658891	596
1	5386	440151.538085890967	597
1	5399	441079.796589771317	598
1	5404	441527.107800124244	599
1	5415	442533.035605028303	600
1	5426	443679.892206145482	601
1	5431	444018.795724818515	602
1	5444	445384.831140562923	603
1	5453	446144.432991044627	604
1	5458	446463.091235328497	605
1	5467	447088.516537053541	606
1	5478	448063.784626079755	607
1	5485	448634.154361579599	608
1	5494	449531.942714704233	609
1	5505	450336.9282098953	610
1	5512	450933.834060095283	611
1	5523	451711.61840320568	612
1	5532	452319.550046185063	613
1	5541	452895.995520567553	614
1	5548	453482.203318085553	615
1	5557	454512.812136020543	616
1	5566	455184.798127831923	617
1	5575	455527.132866019415	618
1	5584	456322.687459224867	619
1	5595	457348.351554852011	620
1	5602	458041.677943524005	621
1	5613	458732.038526656138	622
1	5620	459097.668275004285	623
1	5631	460141.083655133875	624
1	5640	460907.342592207747	625
1	5649	461795.088918786528	626
1	5658	462447.317503625558	627
1	5669	463443.467107275532	628
1	5678	464204.133424675123	629
1	5685	464869.290206674517	630
1	5692	465228.03997672166	631
1	5701	465918.844575667785	632
1	5714	467019.368400983543	633
1	5723	467670.086103491516	634
1	5728	467980.031634494693	635
1	5737	468588.59337475154	636
1	5748	469473.718228563697	637
1	5755	470083.169041760297	638
1	5766	471120.539047569067	639
1	5775	472059.976990381287	640
1	5786	472934.729130053924	641
1	5795	473683.158369502084	642
1	5804	474267.562144529106	643
1	5811	475082.804158329995	644
1	5818	475676.543133985283	645
1	5827	476338.073683250727	646
1	5836	476928.018212132188	647
1	5845	477932.718460634383	648
1	5854	478491.318987216833	649
1	5867	479268.336841324377	650
1	5872	479700.41404408406	651
1	5883	480784.465430164742	652
1	5892	481222.542627900871	653
1	5899	482048.220557346973	654
1	5910	482655.235433019731	655
1	5917	483158.419645903666	656
1	5926	483889.744658907909	657
1	5935	484705.7109054644	658
1	5948	485890.529364533756	659
1	5953	486483.809645148028	660
1	5962	487118.398451618884	661
1	5971	487697.423124639351	662
1	5980	488486.263659037684	663
1	5991	489698.116199439425	664
1	6002	490478.665458178182	665
1	6009	491065.813587605988	666
1	6016	491816.838220367243	667
1	6025	492460.454265307669	668
1	6036	493130.77603708956	669
1	6047	494000.402174005318	670
1	6052	494322.669774480197	671
1	6065	495541.781533230129	672
1	6070	496100.064602913368	673
1	6079	496701.28857227977	674
1	6088	497137.957388581741	675
1	6093	497630.566899385336	676
1	6108	498880.446852045167	677
1	6115	499669.941152399439	678
1	6124	500316.84333616871	679
1	6133	500868.007111502845	680
1	6144	502006.615636311504	681
1	6155	502835.8659947757	682
1	6164	503659.706886252421	683
1	6173	504468.684780132058	684
1	6182	505339.750197529825	685
1	6189	505905.370949814128	686
1	6196	506286.768724210593	687
1	6207	507075.692496215957	688
1	6214	507424.666883703354	689
1	6225	508447.51344881955	690
1	6234	509568.731712643089	691
1	6243	510014.252370223434	692
1	6254	510721.51888785887	693
1	6259	511262.885283166575	694
1	6270	512462.916818819973	695
1	6279	513328.129505831781	696
1	6288	513835.046313889357	697
1	6295	514750.754022644866	698
1	6304	515505.793716246295	699
1	6315	516624.657377321306	700
1	6322	516963.604328921098	701
1	6333	518168.097799178246	702
1	6342	518831.053924793411	703
1	6349	519229.087861580808	704
1	6360	520164.623557683114	705
1	6371	521009.597425768186	706
1	6376	521387.903827987645	707
1	6385	522460.346682183479	708
1	6396	523153.461806522717	709
1	6403	523771.13438691016	710
1	6416	525031.296764826436	711
1	6425	525781.611167220433	712
1	6434	526619.802210805972	713
1	6439	527100.037390412797	714
1	6452	528123.761462839355	715
1	6457	528466.856537852471	716
1	6468	529278.154874732752	717
1	6477	530064.691430144047	718
1	6484	530533.975099353155	719
1	6495	531650.302797742223	720
1	6502	532019.364621955936	721
1	6511	532866.904711257701	722
1	6522	533606.973709864577	723
1	6529	534135.548042692279	724
1	6540	535390.543858381024	725
1	6549	536209.07466053035	726
1	6556	536716.482186969406	727
1	6565	537474.349337909407	728
1	6578	538269.64033101689	729
1	6583	538748.352093854956	730
1	6596	539914.348629489577	731
1	6603	540372.644523158705	732
1	6614	541353.289989475197	733
1	6623	541913.982531521506	734
1	6632	542764.546342380382	735
1	6637	543454.807828506492	736
1	6648	544275.322382524647	737
1	6657	545146.580904163458	738
1	6666	545639.172727754377	739
1	6669	545989.868192235045	740
1	6682	546975.856055645309	741
1	6691	548049.662647582628	742
1	6700	548630.289696436412	743
1	6713	549539.306486304886	744
1	6718	549846.564543060995	745
1	6729	550834.528703196011	746
1	6740	551983.685391582585	747
1	6745	552315.313306963108	748
1	6758	553469.551356229967	749
1	6767	554281.537188123948	750
1	6774	554934.260089276395	751
1	6781	555525.389097025655	752
1	6792	556517.174873873629	753
1	6799	556871.056706691198	754
1	6812	558424.993955483698	755
1	6817	558980.790774989911	756
1	6828	559992.132893018462	757
1	6835	560468.681991845407	758
1	6844	560924.654079135545	759
1	6857	562147.232276899778	760
1	6866	562850.715868966692	761
1	6873	563359.724939474874	762
1	6880	564068.712140852624	763
1	6891	564956.235603941643	764
1	6898	565346.824040729591	765
1	6907	566104.541672347152	766
1	6920	567432.015042845198	767
1	6929	568211.327151674816	768
1	6936	568745.986623829269	769
1	6943	569367.788546578997	770
1	6954	570303.683336824217	771
1	6965	571078.164709825107	772
1	6970	571437.829049723261	773
1	6981	572321.887722658032	774
1	6988	572854.274075618052	775
1	6997	573715.888857236171	776
1	7010	574717.643613880539	777
1	7019	575140.30194855299	778
1	7024	575581.348532019222	779
1	7037	576339.670638553837	780
1	7042	576654.956378554964	781
1	7055	577898.331478424409	782
1	7060	578396.566524636039	783
1	7069	579113.393613975534	784
1	7082	580243.748279940376	785
1	7087	580807.89197590206	786
1	7096	581459.570218110496	787
1	7109	582513.968389201948	788
1	7114	582996.964773908296	789
1	7125	584160.43929462325	790
1	7132	584658.346031047443	791
1	7141	585494.467532308811	792
1	7150	586097.438700310925	793
1	7163	587434.889166941905	794
1	7172	588244.750512996727	795
1	7177	588619.942052476147	796
1	7188	589220.368359424212	797
1	7199	590343.659023381808	798
1	7206	591136.768647003957	799
1	7213	591656.675974326246	800
1	7224	592654.430779488796	801
1	7235	593482.044988498131	802
1	7240	593984.092588070819	803
1	7253	595156.68892362159	804
1	7262	596052.309446688781	805
1	7271	596838.418165175284	806
1	7276	597183.162609860341	807
1	7287	598190.878549218217	808
1	7298	598939.789775060529	809
1	7303	599400.536834215785	810
1	7314	600600.1124419738	811
1	7321	601015.521990973542	812
1	7332	601642.943143565247	813
1	7341	602438.51810954515	814
1	7348	603030.834452714809	815
1	7359	603691.873458679804	816
1	7370	604538.357141520867	817

