version 2
run Pipeline_7teachers-12-20181220-18:43:15-24632
attr configname Pipeline_7teachers
attr datetime 20181220-18:43:15
attr experiment Pipeline_7teachers
attr inifile omnetpp.ini
attr iterationvars "$0=\"lognormal\""
attr iterationvarsf lognormal-
attr measurement "$0=\"lognormal\""
attr network PipelinedExamSession
attr processid 24632
attr repetition 2
attr replication #2
attr resultdir results
attr runnumber 12
attr seedset 2
param **.teachersNumber 7
param **.answerTimeDistribution "\"lognormal\""
param **.minUniform 300
param **.maxUniform 1800
param **.scaleLognormal 6.8153
param **.shapeLognormal 0.5316

vector 0 PipelinedExamSession examinationTime:vector ETV
attr source examFinished
vector 1 PipelinedExamSession studentsWaitingTime:vector ETV
attr source waitingTime
vector 2 PipelinedExamSession teachersIdleTime:vector ETV
attr source idleTime
0	57	6469.914630909523	6469.9146309095
0	110	8887.581322467334	7745.0735641806
0	137	10524.837879831515	7660.9261923406
0	172	15033.346824147993	10976.346217455
0	197	16384.059661940919	10764.620817042
0	214	17017.523286674011	10530.658667478
0	223	18692.357739322417	10949.715926957
0	268	22892.388979929142	14142.547134219
0	277	23756.960615374796	13844.035841241
0	310	25541.478874010232	13287.934413141
0	327	26294.311334752911	11260.964510605
0	344	27450.058369416793	11065.998707476
0	371	28743.652332835293	7924.9107574668
0	378	29731.338963064812	7855.2569135869
0	409	33261.790422025272	9145.4139370097
0	448	35472.119233593049	9798.4142194053
0	491	37783.765547500734	9997.8024828245
0	514	39940.520809161342	9479.1778018215
0	529	40900.373625783744	9172.2197886597
0	540	42043.719418512776	8470.2836730381
0	591	44951.036276607319	10516.217920826
0	598	45473.30534195945	9721.6318600183
0	619	46769.655551884073	9840.1559492961
0	640	48032.056678162338	8692.4368006074
0	691	51711.829883692488	10282.722217492
0	698	52120.516293358017	9028.9492260404
0	725	53575.615724343796	9194.4854493445
0	744	54045.065080471517	8139.4934662765
0	765	55115.851777295744	7114.3530024669
0	810	58555.417654089221	8780.3482113532
0	839	61611.138434767751	10863.675398521
0	862	63153.573520961255	11007.697318762
0	889	64681.080298319537	10847.169624247
0	910	65514.09773406198	10759.787021847
0	935	66378.254794870883	9953.6183044418
0	970	69156.554083464912	10827.124001173
0	993	70875.85509207029	9975.3572385425
0	1004	71663.531212102522	8813.9910568302
0	1017	72245.168504788611	8061.6163927258
0	1068	76415.589425896623	11202.998032587
0	1085	77146.981415943483	10787.384077948
0	1094	77747.835732994107	10612.022305141
0	1121	79438.50339585111	9824.6377309049
0	1156	82365.77657739716	10328.98461952
0	1173	83062.186726914522	9084.2940265948
0	1196	84244.87696400762	8932.6556206163
0	1223	85498.018086439224	7563.6748823579
0	1250	87162.6170064984	6408.7890228518
0	1267	88617.494816216427	7079.181554338
0	1316	94049.760691457423	11241.556505376
0	1339	96004.774352982789	12217.399839014
0	1354	96441.246762881733	11116.874448341
0	1385	97618.050854046531	11259.871932877
0	1414	99359.452453439194	11468.265259532
0	1435	99921.087855080219	9470.666791831
0	1464	101316.857834394209	8429.533384995
0	1491	103257.077306648109	8123.8483025818
0	1500	104190.483945909283	7722.7340228053
0	1521	105509.762701916853	8092.8104373784
0	1542	106397.39709574036	7851.8379449446
0	1573	110890.818196233729	11201.011030324
0	1598	114273.207939171059	13045.901887541
0	1645	117069.909788787042	14793.492339182
0	1660	117757.177261546933	12840.581378513
0	1673	118469.528264798196	12168.540557282
0	1690	120729.135946866509	11609.810813753
0	1711	123114.073258238379	10473.573354778
0	1754	129207.052808161724	14898.405356299
0	1767	129928.124119983346	13665.759270377
0	1784	131021.530322757342	13563.34017161
0	1799	131817.377022956327	11452.259759276
0	1840	134932.946169055733	11610.668115099
0	1895	138345.356666200772	10432.312998215
0	1922	141103.181604199979	10974.508840383
0	1947	143851.323350397681	12460.68791149
0	1972	145918.588440019521	12349.627978779
0	1991	146661.711861264992	12120.744576381
0	2012	147508.980665807449	11564.115380812
0	2021	148632.552866657353	11083.225410654
0	2044	149584.854522496866	10975.906823236
0	2075	151428.090412375606	10324.908808176
0	2098	152960.300853307596	9108.9775029099
0	2139	155547.082233866256	9628.4937938467
0	2164	157466.865577043323	10021.947199203
0	2181	158251.543377477413	9382.8819328923
0	2218	160779.573803923729	10384.548332572
0	2243	161928.848519943748	9982.4937306913
0	2262	162861.071898801338	9556.7816343916
0	2295	164428.976212772449	9141.578072346
0	2312	165235.747269131226	8243.5262221843
0	2327	166187.363058881041	7690.5907030966
0	2344	166971.816499164352	7377.136431482
0	2367	168458.456998983108	7557.3568510022
0	2410	172220.695862196944	9450.7364387687
0	2415	172530.044160330645	8981.0014472561
1	57	6469.914630909523	0
1	110	8887.581322467334	702.94316183096
1	137	10524.837879831515	1505.6759267145
1	172	15033.346824147993	1976.4384130805
1	197	16384.059661940919	4300.4012100632
1	214	17017.523286674011	4445.7295425481
1	223	18692.357739322417	3273.1112359131
1	268	22892.388979929142	3738.1658606596
1	277	23756.960615374796	10106.18259332
1	310	25541.478874010232	7095.8121466089
1	327	26294.311334752911	5933.9201629445
1	344	27450.058369416793	4635.5603035211
1	371	28743.652332835293	2295.0162099129
1	378	29731.338963064812	1127.8341133579
1	409	33261.790422025272	0
1	448	35472.119233593049	25.983301589532
1	491	37783.765547500734	0
1	514	39940.520809161342	2186.2115236212
1	529	40900.373625783744	2120.4449374996
1	540	42043.719418512776	1544.1598778925
1	591	44951.036276607319	796.99330757733
1	598	45473.30534195945	3040.8860450539
1	619	46769.655551884073	3722.3199602827
1	640	48032.056678162338	2730.9368440119
1	691	51711.829883692488	1748.7116667701
1	698	52120.516293358017	2009.5757260371
1	725	53575.615724343796	2391.5796715038
1	744	54045.065080471517	1311.8990869278
1	765	55115.851777295744	1108.6311637378
1	810	58555.417654089221	2302.6251011892
1	839	61611.138434767751	1414.690787281
1	862	63153.573520961255	3460.6469703632
1	889	64681.080298319537	3835.5172305773
1	910	65514.09773406198	2398.5112875947
1	935	66378.254794870883	2707.9162343056
1	970	69156.554083464912	1459.181967246
1	993	70875.85509207029	1164.2782698798
1	1004	71663.531212102522	2746.9752732643
1	1017	72245.168504788611	2364.2452097818
1	1068	76415.589425896623	3029.2339552634
1	1085	77146.981415943483	5941.2302230672
1	1094	77747.835732994107	2481.8967170963
1	1121	79438.50339585111	2515.4749640419
1	1156	82365.77657739716	1925.211713818
1	1173	83062.186726914522	3191.2429326125
1	1196	84244.87696400762	0
1	1223	85498.018086439224	0
1	1250	87162.6170064984	26.150445795634
1	1267	88617.494816216427	1015.4954410513
1	1316	94049.760691457423	74.109675726009
1	1339	96004.774352982789	3468.7181012722
1	1354	96441.246762881733	4597.6726318742
1	1385	97618.050854046531	5650.4216910452
1	1414	99359.452453439194	5003.6957581277
1	1435	99921.087855080219	2631.6423378177
1	1464	101316.857834394209	1861.0897601268
1	1491	103257.077306648109	595.16279242979
1	1500	104190.483945909283	2298.4466122541
1	1521	105509.762701916853	2544.0096423016
1	1542	106397.39709574036	777.14964365661
1	1573	110890.818196233729	1301.73526228
1	1598	114273.207939171059	3356.6967575419
1	1645	117069.909788787042	5598.4167364287
1	1660	117757.177261546933	6123.8650600317
1	1673	118469.528264798196	4805.2691463678
1	1690	120729.135946866509	5164.2160404126
1	1711	123114.073258238379	2001.1958403423
1	1754	129207.052808161724	5106.6469823823
1	1767	129928.124119983346	3082.8181848504
1	1784	131021.530322757342	7301.0396301011
1	1799	131817.377022956327	3925.5636003828
1	1840	134932.946169055733	3811.8042992199
1	1895	138345.356666200772	2104.1898512421
1	1922	141103.181604199979	3786.7009650216
1	1947	143851.323350397681	4604.6608279386
1	1972	145918.588440019521	5535.4292116874
1	1991	146661.711861264992	4988.3832818445
1	2012	147508.980665807449	5193.9582861752
1	2021	148632.552866657353	4419.3126905521
1	2044	149584.854522496866	4572.2023348212
1	2075	151428.090412375606	5020.487378371
1	2098	152960.300853307596	2605.3207040659
1	2139	155547.082233866256	1968.1709230991
1	2164	157466.865577043323	3531.2405895843
1	2181	158251.543377477413	5094.8134426877
1	2218	160779.573803923729	1558.0802772311
1	2243	161928.848519943748	2084.9131280483
1	2262	162861.071898801338	4201.4040252687
1	2295	164428.976212772449	2222.7152297726
1	2312	165235.747269131226	3065.6175089543
1	2327	166187.363058881041	298.71315922201
1	2344	166971.816499164352	1501.686410501
1	2367	168458.456998983108	545.76432071982
1	2410	172220.695862196944	311.2387125556
1	2415	172530.044160330645	2691.4418353874
2	2424	172800	71241.742816748
2	2424	172800	70916.189639524
2	2424	172800	72035.352086539
2	2424	172800	74215.436207
2	2424	172800	64704.387722017
2	2424	172800	73086.576430572
2	2424	172800	74453.617014864

