version 2
run Pipelined_3Teachers-87-20190105-10:57:37-8800
attr configname Pipelined_3Teachers
attr datetime 20190105-10:57:37
attr experiment Pipelined_3Teachers
attr inifile ../simulations/omnetpp.ini
attr iterationvars "$0=\"uniform\""
attr iterationvarsf uniform-
attr measurement "$0=\"uniform\""
attr network PipelinedExamSession
attr processid 8800
attr repetition 87
attr replication #87
attr resultdir results
attr runnumber 87
attr seedset 87
param **.teachersNumber 3
param **.answerTimeDistribution "\"uniform\""
param **.minUniform 300
param **.maxUniform 900
param **.scaleLognormal 6.2854
param **.shapeLognormal 0.4724

vector 0 PipelinedExamSession examinationTime:vector ETV
attr source examFinished
vector 1 PipelinedExamSession studentID:vector ETV
attr source student
0	3158	260589.185810275395	2035.9361280687
0	3163	260988.596462924053	1859.2418733984
0	3172	261471.30105360413	1553.3839030657
0	3183	262617.777415830662	2028.5916055553
0	3192	263167.601383617167	1847.985664336
0	3201	263937.453670520355	2059.3601960689
0	3208	264423.511916818117	1656.3139538281
0	3217	265068.345701973905	1710.5337931775
0	3226	265503.658533934524	1525.3909384366
0	3239	266548.461292404701	1699.9585675076
0	3244	266958.17717607135	1641.993083898
0	3255	268043.514064606299	2277.4682579096
0	3264	268626.962896529605	2078.5016041249
0	3271	269018.011243036037	1603.7447144743
0	3282	269990.669101802652	1848.1744974386
0	3291	270841.050047893097	2027.2667224053
0	3300	271606.567345233654	1958.8881456759
0	3307	272186.015328252708	1823.114552116
0	3318	273020.812060358022	1759.8287000321
0	3325	273841.902782209236	1854.8117785715
0	3334	274803.102898271773	2156.3577418216
0	3347	275698.277804441769	2210.8656891156
0	3352	276086.363129597176	1897.3836428951
0	3361	277019.403005205114	1934.7500107717
0	3374	278041.068162163739	2342.790357722
0	3383	278845.662395702695	2362.7757358365
0	3390	279617.784730810692	2301.6489928588
0	3399	280426.647851848995	2385.5796896853
0	3410	281327.89818495514	2482.2357892524
0	3419	282027.201832551529	2409.3959660735
0	3426	282789.850431215038	2359.0865139384
0	3437	283598.999654268866	2271.1014693137
0	3444	284267.685222672319	2240.4833901208
0	3455	285289.289566688259	2397.2444667947
0	3464	286006.502020312493	2407.5023660436
0	3471	286671.139869466444	2194.8765949812
0	3480	287532.81455305407	2243.5249863658
0	3489	288166.15807665514	2159.6560563426
0	3498	288876.672001183053	2144.2466853652
0	3505	289423.9483041689	1825.5452624056
0	3514	290251.449480419999	1767.5339834299
0	3523	290608.751426031833	1697.7165975608
0	3534	291545.39331025446	1820.4150765203
0	3543	292347.726798662936	1924.1508543491
0	3550	292861.04336748833	2051.7757153139
0	3559	293225.050204060991	1525.0648907851
0	3568	294203.196844831128	1802.6703185868
0	3577	294797.065802570452	1780.1989364438
0	3590	295930.13998651879	2088.6415800545
0	3597	296490.311105875318	2116.38652361
0	3604	297262.703821761553	2100.4204746801
0	3613	297991.969308676218	2061.8293221574
0	3626	299199.104367289712	2483.0502378289
0	3631	299585.49835528249	1976.06124538
0	3640	300139.065126702209	1715.4920000117
0	3649	300866.902904212495	1667.7985369228
0	3660	301881.151084369068	1869.0377606079
0	3669	302587.505871942287	1880.5051159579
0	3678	303262.980141118189	1834.0622588061
0	3685	303960.849544918185	1799.2986847647
0	3698	304958.533797226867	2361.380043067
0	3705	305644.53049376609	2210.9122997615
0	3716	306610.135813616237	2407.6963276137
0	3725	307328.078009560725	2369.5442123339
0	3730	307665.09346542882	1923.0452082586
0	3739	308135.456503182671	1525.3206895664
0	3752	309215.972309745869	1887.8943001851
0	3761	309919.295411976075	1917.8371505812
0	3770	310784.871161263457	2255.9184929822
0	3779	311651.86999635773	2435.8976866119
0	3784	312032.468696963063	2113.173284987
0	3793	312758.002418931594	1973.1312576681
0	3802	313241.656095720849	1589.7860993631
0	3813	314052.147721778623	1682.6451597735
0	3820	314505.874707782663	1674.4403899647
0	3829	315149.974705372028	1664.22836571
0	3838	315908.756106812528	1789.8313344922
0	3849	317241.413880838103	2240.2773890644
0	3856	317700.072228955127	1860.206634365
0	3867	318605.400940636195	1903.5788670648
0	3874	318928.377019520871	1576.0343902744
0	3883	319802.406841423384	1751.484295819
0	3894	320813.939072610833	2136.3884971943
0	3901	321159.655857458733	1730.7212658226
0	3912	322565.876925783255	2436.4822472446
0	3919	323128.432588325837	2142.9347451311
0	3928	323818.608473707014	2012.3911259696
0	3941	324841.10448486174	2249.0373929031
0	3950	325549.552270537266	2103.1717122998
0	3955	325855.092329392233	1649.0704146679
0	3968	326907.821974111744	2066.71748925
0	3977	327670.15362675304	2120.6013562158
0	3982	328016.906566265993	1829.0209832601
0	3991	328683.547736238711	1775.725762127
0	4000	329743.295864481502	2073.1422377285
0	4009	330210.673864698061	1776.1795139406
0	4020	330807.849985733651	1533.369570924
0	4029	331627.145409397804	1601.7065605614
0	4036	331973.372257640608	1538.0482432432
0	4049	333064.540095906728	2004.3490023818
0	4058	333886.523328814679	2200.4856950138
0	4065	334378.321039024764	2162.5412254594
0	4072	335191.828049160564	2127.2879532538
0	4085	336104.836101410934	2218.3127725963
0	4092	336774.119021510729	2143.0019758176
0	4101	337624.519360251748	2284.3517455738
0	4108	337996.404842007928	1891.568740597
0	4121	338987.691243644827	2032.0603188593
0	4128	339612.567638419592	1980.2576281596
0	4139	340528.19020673635	2438.4902654216
0	4144	341005.635234899843	2017.943991255
0	4153	341668.966020690302	1971.6357531957
0	4166	343000.658065499761	2472.4678587634
0	4173	343531.581320660212	2210.6517460663
0	4182	344211.93179804834	2008.6113311816
0	4193	345075.687928497815	2075.0298629981
0	4198	345494.289536168823	1930.4844381753
0	4209	346458.167857211107	2216.2973653525
0	4218	347203.281947504753	2127.5940190069
0	4229	348041.305750748166	2319.0262800548
0	4236	348630.988636426651	2095.8803126123
0	4243	349490.891217347258	2192.5961945672
0	4256	350491.857378836745	2450.5516280886
0	4265	351148.344432748878	2296.1920680944
0	4270	351570.636900421256	1905.4013343528
0	4279	352122.043563053035	1630.1861842163
0	4292	353223.608221113706	2075.2637883648
0	4297	353893.614650191763	1909.8493431229
0	4310	354809.888302395144	2228.9880895056
0	4319	355547.924597980478	2324.3163768668
0	4326	356297.826925897994	2290.3950674459
0	4333	357029.450297355676	2219.5619949605
0	4342	357493.201644904935	1945.2770469245
0	4353	358460.890716360906	2032.4452532921
0	4364	359061.883749207506	1761.6815065965
0	4371	359500.370063027391	1666.3000789471
0	4382	360450.598913803721	1963.3785769343
0	4389	360856.726586027095	1794.8428368196
0	4396	361394.664484262491	1819.7332010139
0	4405	362393.345918180446	1942.7470043767
0	4418	363533.911149110669	2277.8955599293
0	4423	363851.696175104031	1832.2177239228
0	4432	364442.823605239415	1793.4634715784
0	4443	365096.994678117359	1563.0835290067
0	4452	366075.865924358391	2164.9547293782
0	4463	367185.768682602816	2401.579861762
0	4468	367612.324174912669	2155.2154493518
0	4477	368350.552101619565	2059.7777147312
0	4488	369466.126709338301	2280.3580267355
0	4497	369839.306037174561	1886.0988997389
0	4504	370684.67188579964	2027.4288605433
0	4513	371734.621541714319	2254.2967388872
0	4522	372596.711134258681	2252.7834862936
0	4531	373250.316871656128	2016.7327854317
0	4542	374420.296968240314	2349.3359722663
0	4549	374814.741598349088	1848.7395057455
0	4558	375346.212156582647	1580.2506645676
0	4567	376152.051008306467	1702.3865440395
0	4576	376742.312832037011	1779.7511459794
0	4585	377769.708872213984	2037.4388828874
0	4594	378499.100369447866	2136.7688098457
0	4603	379083.195874979743	1892.5977983046
0	4612	380183.758341008821	2139.8493709043
0	4623	380855.897761322581	1942.0634913258
0	4630	381190.878890315094	1627.9812110122
0	4639	382158.652168465802	1719.4914966356
0	4648	383194.333344837675	2203.0568125192
0	4657	383610.685065155873	1743.8767164946
0	4668	384601.819544797788	1983.6904413532
0	4675	385142.006517760481	1846.8161981553
0	4684	386209.411019040297	2196.6760864947
0	4693	387012.652442604329	2184.3832349405
0	4706	387944.34785409833	2325.2099406905
0	4715	388461.447993200297	2150.5956136622
0	4722	389017.126288265015	1874.3526365608
0	4729	389805.625806190098	1861.2779520918
0	4738	390724.495266191687	2263.0472729914
0	4747	391498.572331946368	2151.2203240301
0	4760	392468.353764759402	2341.5839149151
0	4769	393184.616500837754	2319.4613182917
0	4778	393915.842743730198	2156.8180347327
0	4785	394518.708761315818	2050.3549965564
0	4792	394901.058989251058	1716.4424884133
0	4801	395739.813161641385	1823.9704179112
0	4812	397184.946448495637	2370.1436055824
0	4819	397734.680995345141	2193.9546965528
0	4832	398954.442329937617	2621.6689827852
0	4841	399819.333330402176	2596.9525025692
0	4848	400514.061857666846	2457.8412292991
0	4857	401220.131739741217	2265.6894098036
0	4864	401593.051274819325	1773.7179444171
0	4875	402507.444200478519	1822.8648473974
0	4882	402869.127806508939	1639.5155437756
0	4895	403767.240667669128	1643.3333240915
0	4900	404264.613445429157	1604.8501464073
0	4913	405393.82804529744	2354.3513295706
0	4920	405957.224224554401	2189.9835568853
0	4929	406854.076294228461	2350.250517251
0	4938	407447.161081060794	2053.3330357634
0	4945	408238.773509580669	1951.8992641009
0	4954	409068.712619226452	2002.2323543206
0	4963	409726.50325032885	1779.540350195
0	4972	410584.136016760047	1935.4855447076
0	4981	411589.519495703306	2210.0785899907
0	4990	412022.673777490881	1787.6903365832
0	5003	413018.197001377147	1991.7560827453
0	5012	413855.501244077485	2035.6906471308
0	5021	414744.501905562382	2271.7125759926
0	5026	415064.411689667057	2046.2146882899
0	5035	415762.765196990248	1907.2639529128
0	5046	416508.470598422017	1763.9686928596
0	5055	417327.593063330304	1820.5000307411
0	5062	417670.539662428226	1649.1079418454
0	5071	418371.408451488267	1768.6976342462
0	5080	419290.136177977573	1956.3254934736
0	5089	420154.985302314189	1958.9487120509
0	5098	420722.920474642913	1949.3570648599
0	5109	421547.155496897201	1906.0028275475
0	5120	422499.891011556636	2109.5313212369
0	5127	423168.605250399585	2296.891357284
0	5136	423919.273763615663	2312.7175179776
0	5143	424503.952500270705	2004.0614887141
0	5154	425348.988351831239	2144.8263907805
0	5165	426349.684638110946	2274.5108409785
0	5170	426922.705061920012	2020.4950117506
0	5181	427901.722667645688	2222.4638833199
0	5192	428607.264697970847	2257.5800598599
0	5197	429132.309768861184	1921.333883889
0	5206	429660.249894484903	1702.7609063778
0	5217	430699.292199919025	2092.0275019482
0	5224	431191.919543501014	1785.9361682553
0	5233	431891.073906049158	1821.2955084164
0	5246	432740.52490261386	1852.1492119879
0	5253	433392.159027373445	2045.5565346871
0	5260	433816.320852516246	1760.5699720792
0	5273	434963.040607888278	2222.5157052744
0	5278	435359.328721370574	1886.6224739235
0	5289	436325.604796316501	2057.8679650091
0	5298	437152.878306666415	2189.8376987781
0	5307	437880.326749105034	2048.9646686241
0	5314	438237.080803094459	1907.3387204669
0	5327	439795.637985225795	2614.3778007478
0	5336	440662.401530658854	2591.5006059688
0	5341	441007.3636252899	2098.0600648094
0	5352	441956.196769746049	2160.5587845203
0	5359	442787.643681373476	2125.2421507146
0	5368	443332.195055577932	1973.9679868799
0	5377	443983.256393624498	1756.6597787663
0	5388	445055.473151570214	2109.8761187866
0	5395	445516.327793290867	1714.208488958
0	5408	446552.998083969606	2009.0215584263
0	5413	446857.507097069202	1557.8843988944
0	5426	447754.817246552584	1995.54568897
0	5431	448105.556917469976	1552.5588335004
0	5442	449347.462654626024	2350.3866253886
0	5451	449922.430347511572	2167.613100959
0	5460	450766.471845656661	2261.0363190528
0	5469	451227.765291323913	1823.6929161474
0	5476	452002.565451012952	1949.2721716873
0	5489	453014.723360119415	2191.8086319231
0	5494	453367.560298182098	1782.3979387991
0	5503	453993.866403680322	1756.3937926199
0	5512	455129.018796142219	2114.2954360228
0	5521	456007.326149381725	2345.845306199
0	5530	456325.54659959863	1791.9035783038
0	5539	457337.623040936916	1923.5655792989
0	5548	458065.712013747572	1830.2377923857
0	5557	458942.42522693242	1949.3015618529
0	5566	459591.369458148284	1842.9935071617
0	5577	460308.200480695842	1856.7846709862
0	5588	461203.408264182536	1952.4664881639
0	5593	461685.840579355164	1832.8699990176
0	5606	462532.148401206388	2182.6768540777
0	5615	463127.569854771747	1924.1615905892
0	5624	463970.112902345164	2114.9158302695
0	5633	464867.878459626837	2335.7300584204
0	5638	465466.731819044827	2339.1619642731
0	5649	466308.49744803275	2338.3845456876
0	5658	467115.208256430952	2247.3297968041
0	5667	467616.26426274891	1900.5270221271
0	5674	468345.610070508001	1969.4336697925
0	5687	469488.965723477332	2355.1474955399
0	5696	470354.928244231297	2460.5085035786
0	5705	470885.057449154584	2201.3735388871
0	5714	471388.161536911531	1899.1958134342
0	5719	471771.308696921943	1416.3804526906
0	5732	473143.02842603068	2257.9709768761
0	5737	473890.682018408581	2502.520481497
0	5750	474597.588103311166	2351.7472391948
0	5759	475364.84426097016	2221.8158349395
0	5764	475856.265276158258	1875.7982209325
0	5775	476751.867131190405	2154.2790278792
0	5786	477539.964791201084	2175.1205302309
0	5791	477986.644152598485	1798.1473075692
0	5802	478501.991468248918	1693.7480354682
0	5811	479118.912059767201	1578.9472685661
0	5822	480199.770286353334	2177.4237727281
0	5831	480779.392175702407	2127.8060819954
0	5838	481282.286962866812	1951.1386234313
0	5849	482395.55061366412	2195.7803273108
0	5858	483113.282595947414	2333.890420245
0	5867	483780.96838267523	2156.520548556
0	5872	484247.07813039425	1851.5275167301
0	5883	485193.464780878305	2080.1821849309
0	5892	485669.113735528692	1888.1453528535
0	5901	486532.686360972032	1990.0260607246
0	5908	487078.821152541816	1846.6433855239
0	5917	487871.698823059008	1970.7411483396
0	5930	488690.670790616454	2031.8401191384
0	5935	489414.606762304933	2045.8172536455
0	5948	490409.828219376536	2283.686905168
0	5955	490931.492433976414	2240.82164336
0	5964	491547.036444861473	1996.6811612248
0	5975	492401.162407547267	1991.3341881707
0	5984	493213.609729986669	2263.4518818464
0	5991	493743.2612424251	2015.3484553099
0	6002	494983.116118283974	2581.9537107367
0	6011	495827.964928792821	2614.3551988062
0	6020	496689.683797024222	2592.9430140182
0	6025	497060.726323910089	2077.6102056261
0	6034	497671.395526360752	1843.4305975679
0	6047	498425.138924829694	1735.4551278055
0	6056	499234.09531270157	2095.4947792925
0	6061	499534.236944094332	1727.4545751046
0	6074	500473.523879377203	2048.3849545475
0	6079	500775.72010131556	1541.624788614
0	6088	501601.782167376982	1859.1648589354
0	6099	502627.507568942414	2153.9836895652
0	6106	503433.175928564774	2110.4845473077
0	6115	504097.892327187614	1878.1744702253
0	6128	505398.894325364413	2327.4489384145
0	6135	505825.915128551456	1913.0016729701
0	6142	506337.820856273207	1650.1629239414
0	6151	507403.077032463658	2004.1827070992
0	6164	508257.670219615134	2033.2401111256
0	6171	508600.922313099759	1860.9640130773
0	6178	509054.971260577472	1427.4367645383
0	6189	509898.817681102114	1641.147461487
0	6196	510522.670372528988	1777.1608302835
0	6205	511242.119508935171	1909.5037970692
0	6218	512466.413914505425	2341.0009049345
0	6227	513247.969024814698	2249.3632453959
0	6234	513956.620385544407	2330.9634410776
0	6241	514451.730795158106	1985.3168806527
0	6250	515167.785188276354	1919.8161634617
0	6263	515986.754619190502	1966.5507678408
0	6270	516727.48897369023	1899.7528185602
0	6279	517216.337027493897	1772.3105646204
0	6286	517531.448177062008	1544.6935578715
0	6295	518123.389550484749	1374.3270374369
0	6308	518985.856505669686	1634.7448170651
0	6313	519311.171097122165	1453.7863413803
0	6322	520076.806803792748	1845.0241102371
0	6331	520846.343557722899	1860.4870520532
0	6344	522124.819383630562	2320.5559782218
0	6351	522554.534907499361	2129.6163144987
0	6358	523072.702700179103	1797.0946451649
0	6371	524518.700402509454	2393.8810188789
0	6380	525186.185644939575	2231.0621850193
0	6387	525718.323085131157	1952.3438577075
0	6394	526310.58735600676	1791.8869534973
0	6403	527531.109970947762	2344.9243260082
0	6412	528190.251683676649	2141.6072061751
0	6421	528918.548861844499	2002.9513365123
0	6430	529554.709137277712	1804.6994876582
0	6441	530918.106001848389	2358.8747243397
0	6450	531760.968717606772	2317.8027081303
0	6459	532598.526452668045	2293.6057145242
0	6466	533157.65767861161	2025.267955754
0	6479	534376.089991908555	2445.4827565234
0	6488	535151.068778336083	2452.0310029853
0	6497	535891.041694767808	2390.8661174588
0	6506	536635.514082619955	2259.4240907114
0	6513	537209.651601780241	2058.5828234442
0	6520	537932.255912851577	2041.2142180838
0	6531	538808.555736299638	2173.0416536797
0	6540	539616.200012108346	2170.3841359355
0	6547	540230.78049877662	2012.3837117571
0	6558	540853.496427973767	1915.6549721025
0	6565	541574.676947202569	1948.1410534121
0	6578	542835.966355819291	2426.0478281882
0	6585	543433.368466375432	2319.2600785755
0	6596	544316.505982121488	2342.7076617256
0	6601	544900.655891234091	2064.6895354148
0	6612	545896.61006913524	2300.3436007071
0	6621	546520.221437467298	2203.7154553458
0	6628	546989.133056765458	1788.3264227305
0	6641	548155.886062234676	2233.9113797061
0	6648	548875.591889675743	2171.3605207857
0	6659	549495.456953672728	1986.6939693689
0	6664	549858.119865506923	1702.2338032722
0	6675	550761.650821147523	1808.5897643119
0	6684	551680.364683549887	2184.9077298772
0	6691	552084.471598081326	1717.7411909681
0	6700	552760.791693907267	1795.9451184142
0	6709	553498.652047477698	1789.2234418541
0	6718	554163.437728118187	1672.5763723254
0	6729	555245.256856083906	1926.239127852
0	6740	556095.694162370673	2241.4801287465
0	6749	556892.707133246622	2262.9828799982
0	6754	557607.448148774019	2335.3212426882
0	6763	558191.036612866483	2095.3424504958
0	6776	559171.905665332488	2279.1985320859
0	6783	559830.759403808079	2107.8338894527
0	6792	560481.449910672418	2087.5868939795
0	6803	561404.830724000968	2232.9250586685
0	6808	561759.669824363701	1918.1550765876
0	6817	562317.918973602392	1604.2108044494
0	6830	563685.923116793893	2281.0923927929
0	6837	564414.576685242392	2313.5731278453
0	6844	564767.031260160767	1853.322460223
0	6857	566062.234451528677	2376.3113347348
0	6864	566715.834696404674	2280.7035754435
0	6875	567676.731392322146	2401.2152376585
0	6882	568368.056044774168	2305.8215932455
0	6893	569259.083443880119	2395.4602303449
0	6898	569782.136548915916	2105.4051565938
0	6909	570913.608137844169	2448.7330694217
0	6920	571687.41301735867	2428.3295734786
0	6925	571995.38800176237	1875.382008031
0	6934	572793.163001630495	1823.1441951357
0	6943	573460.520817618857	1773.1078002602
0	6954	574603.895289637187	2244.89813447
0	6963	575374.216864071825	2168.6693990137
0	6970	575732.299505872691	1732.9804593232
0	6983	577088.794116396495	2406.102807261
0	6988	577488.813824113496	2114.5894150715
0	6999	578037.991761043706	1799.5456048753
0	7008	579206.855569453948	2118.0614530575
0	7017	579752.601798204743	2119.8895233683
0	7028	580488.272694731169	2014.6883114241
0	7035	581090.548961469941	1784.223833587
0	7044	582199.734074156769	2439.8892015684
0	7051	582567.750348988958	2079.4776542578
0	7064	583843.224887503349	2514.2363565043
0	7073	584738.522474700623	2534.554343624
0	7080	585489.149013441094	2509.2438417021
0	7087	585845.163196278774	2001.9383087754
0	7098	586833.909960323983	2095.3874856234
0	7109	587617.862965771967	2072.72889046
0	7118	588412.801818922201	2193.5722339433
0	7125	589033.478196384424	2062.5584995374
0	7136	589710.407977597827	2092.5450118259
0	7141	590108.925815904552	1696.1239969824
0	7150	590577.338054822797	1324.5147848502
0	7159	591739.725869474972	2029.3178918771
0	7168	592547.897897567639	2140.4498230666
0	7177	593393.781249783972	2099.4987343904
0	7190	594346.529310056979	2281.9016008638
0	7195	594961.715492606202	2045.8468395285
0	7208	595977.114327298517	2447.3437065259
0	7213	596370.35295185637	2023.8236417994
0	7226	597686.679143132682	2580.1632141229
0	7231	598232.593006454448	2255.4786791559
0	7240	598990.929689258377	2127.4062262382
0	7249	599724.725947296287	2038.0468041636
0	7262	600823.554647946771	2240.815053368
0	7269	601438.091131439473	2334.9061440211
0	7280	602067.330895643722	2113.4546026122
0	7289	602851.419785572257	2027.8651376255
0	7298	603658.135147579055	2187.8590746783
0	7307	604462.61338479821	2395.2824891545
1	3158	260589.185810275395	349
1	3163	260988.596462924053	350
1	3172	261471.30105360413	351
1	3183	262617.777415830662	352
1	3192	263167.601383617167	353
1	3201	263937.453670520355	354
1	3208	264423.511916818117	355
1	3217	265068.345701973905	356
1	3226	265503.658533934524	357
1	3239	266548.461292404701	358
1	3244	266958.17717607135	359
1	3255	268043.514064606299	360
1	3264	268626.962896529605	361
1	3271	269018.011243036037	362
1	3282	269990.669101802652	363
1	3291	270841.050047893097	364
1	3300	271606.567345233654	365
1	3307	272186.015328252708	366
1	3318	273020.812060358022	367
1	3325	273841.902782209236	368
1	3334	274803.102898271773	369
1	3347	275698.277804441769	370
1	3352	276086.363129597176	371
1	3361	277019.403005205114	372
1	3374	278041.068162163739	373
1	3383	278845.662395702695	374
1	3390	279617.784730810692	375
1	3399	280426.647851848995	376
1	3410	281327.89818495514	377
1	3419	282027.201832551529	378
1	3426	282789.850431215038	379
1	3437	283598.999654268866	380
1	3444	284267.685222672319	381
1	3455	285289.289566688259	382
1	3464	286006.502020312493	383
1	3471	286671.139869466444	384
1	3480	287532.81455305407	385
1	3489	288166.15807665514	386
1	3498	288876.672001183053	387
1	3505	289423.9483041689	388
1	3514	290251.449480419999	389
1	3523	290608.751426031833	390
1	3534	291545.39331025446	391
1	3543	292347.726798662936	392
1	3550	292861.04336748833	393
1	3559	293225.050204060991	394
1	3568	294203.196844831128	395
1	3577	294797.065802570452	396
1	3590	295930.13998651879	397
1	3597	296490.311105875318	398
1	3604	297262.703821761553	399
1	3613	297991.969308676218	400
1	3626	299199.104367289712	401
1	3631	299585.49835528249	402
1	3640	300139.065126702209	403
1	3649	300866.902904212495	404
1	3660	301881.151084369068	405
1	3669	302587.505871942287	406
1	3678	303262.980141118189	407
1	3685	303960.849544918185	408
1	3698	304958.533797226867	409
1	3705	305644.53049376609	410
1	3716	306610.135813616237	411
1	3725	307328.078009560725	412
1	3730	307665.09346542882	413
1	3739	308135.456503182671	414
1	3752	309215.972309745869	415
1	3761	309919.295411976075	416
1	3770	310784.871161263457	417
1	3779	311651.86999635773	418
1	3784	312032.468696963063	419
1	3793	312758.002418931594	420
1	3802	313241.656095720849	421
1	3813	314052.147721778623	422
1	3820	314505.874707782663	423
1	3829	315149.974705372028	424
1	3838	315908.756106812528	425
1	3849	317241.413880838103	426
1	3856	317700.072228955127	427
1	3867	318605.400940636195	428
1	3874	318928.377019520871	429
1	3883	319802.406841423384	430
1	3894	320813.939072610833	431
1	3901	321159.655857458733	432
1	3912	322565.876925783255	433
1	3919	323128.432588325837	434
1	3928	323818.608473707014	435
1	3941	324841.10448486174	436
1	3950	325549.552270537266	437
1	3955	325855.092329392233	438
1	3968	326907.821974111744	439
1	3977	327670.15362675304	440
1	3982	328016.906566265993	441
1	3991	328683.547736238711	442
1	4000	329743.295864481502	443
1	4009	330210.673864698061	444
1	4020	330807.849985733651	445
1	4029	331627.145409397804	446
1	4036	331973.372257640608	447
1	4049	333064.540095906728	448
1	4058	333886.523328814679	449
1	4065	334378.321039024764	450
1	4072	335191.828049160564	451
1	4085	336104.836101410934	452
1	4092	336774.119021510729	453
1	4101	337624.519360251748	454
1	4108	337996.404842007928	455
1	4121	338987.691243644827	456
1	4128	339612.567638419592	457
1	4139	340528.19020673635	458
1	4144	341005.635234899843	459
1	4153	341668.966020690302	460
1	4166	343000.658065499761	461
1	4173	343531.581320660212	462
1	4182	344211.93179804834	463
1	4193	345075.687928497815	464
1	4198	345494.289536168823	465
1	4209	346458.167857211107	466
1	4218	347203.281947504753	467
1	4229	348041.305750748166	468
1	4236	348630.988636426651	469
1	4243	349490.891217347258	470
1	4256	350491.857378836745	471
1	4265	351148.344432748878	472
1	4270	351570.636900421256	473
1	4279	352122.043563053035	474
1	4292	353223.608221113706	475
1	4297	353893.614650191763	476
1	4310	354809.888302395144	477
1	4319	355547.924597980478	478
1	4326	356297.826925897994	479
1	4333	357029.450297355676	480
1	4342	357493.201644904935	481
1	4353	358460.890716360906	482
1	4364	359061.883749207506	483
1	4371	359500.370063027391	484
1	4382	360450.598913803721	485
1	4389	360856.726586027095	486
1	4396	361394.664484262491	487
1	4405	362393.345918180446	488
1	4418	363533.911149110669	489
1	4423	363851.696175104031	490
1	4432	364442.823605239415	491
1	4443	365096.994678117359	492
1	4452	366075.865924358391	493
1	4463	367185.768682602816	494
1	4468	367612.324174912669	495
1	4477	368350.552101619565	496
1	4488	369466.126709338301	497
1	4497	369839.306037174561	498
1	4504	370684.67188579964	499
1	4513	371734.621541714319	500
1	4522	372596.711134258681	501
1	4531	373250.316871656128	502
1	4542	374420.296968240314	503
1	4549	374814.741598349088	504
1	4558	375346.212156582647	505
1	4567	376152.051008306467	506
1	4576	376742.312832037011	507
1	4585	377769.708872213984	508
1	4594	378499.100369447866	509
1	4603	379083.195874979743	510
1	4612	380183.758341008821	511
1	4623	380855.897761322581	512
1	4630	381190.878890315094	513
1	4639	382158.652168465802	514
1	4648	383194.333344837675	515
1	4657	383610.685065155873	516
1	4668	384601.819544797788	517
1	4675	385142.006517760481	518
1	4684	386209.411019040297	519
1	4693	387012.652442604329	520
1	4706	387944.34785409833	521
1	4715	388461.447993200297	522
1	4722	389017.126288265015	523
1	4729	389805.625806190098	524
1	4738	390724.495266191687	525
1	4747	391498.572331946368	526
1	4760	392468.353764759402	527
1	4769	393184.616500837754	528
1	4778	393915.842743730198	529
1	4785	394518.708761315818	530
1	4792	394901.058989251058	531
1	4801	395739.813161641385	532
1	4812	397184.946448495637	533
1	4819	397734.680995345141	534
1	4832	398954.442329937617	535
1	4841	399819.333330402176	536
1	4848	400514.061857666846	537
1	4857	401220.131739741217	538
1	4864	401593.051274819325	539
1	4875	402507.444200478519	540
1	4882	402869.127806508939	541
1	4895	403767.240667669128	542
1	4900	404264.613445429157	543
1	4913	405393.82804529744	544
1	4920	405957.224224554401	545
1	4929	406854.076294228461	546
1	4938	407447.161081060794	547
1	4945	408238.773509580669	548
1	4954	409068.712619226452	549
1	4963	409726.50325032885	550
1	4972	410584.136016760047	551
1	4981	411589.519495703306	552
1	4990	412022.673777490881	553
1	5003	413018.197001377147	554
1	5012	413855.501244077485	555
1	5021	414744.501905562382	556
1	5026	415064.411689667057	557
1	5035	415762.765196990248	558
1	5046	416508.470598422017	559
1	5055	417327.593063330304	560
1	5062	417670.539662428226	561
1	5071	418371.408451488267	562
1	5080	419290.136177977573	563
1	5089	420154.985302314189	564
1	5098	420722.920474642913	565
1	5109	421547.155496897201	566
1	5120	422499.891011556636	567
1	5127	423168.605250399585	568
1	5136	423919.273763615663	569
1	5143	424503.952500270705	570
1	5154	425348.988351831239	571
1	5165	426349.684638110946	572
1	5170	426922.705061920012	573
1	5181	427901.722667645688	574
1	5192	428607.264697970847	575
1	5197	429132.309768861184	576
1	5206	429660.249894484903	577
1	5217	430699.292199919025	578
1	5224	431191.919543501014	579
1	5233	431891.073906049158	580
1	5246	432740.52490261386	581
1	5253	433392.159027373445	582
1	5260	433816.320852516246	583
1	5273	434963.040607888278	584
1	5278	435359.328721370574	585
1	5289	436325.604796316501	586
1	5298	437152.878306666415	587
1	5307	437880.326749105034	588
1	5314	438237.080803094459	589
1	5327	439795.637985225795	590
1	5336	440662.401530658854	591
1	5341	441007.3636252899	592
1	5352	441956.196769746049	593
1	5359	442787.643681373476	594
1	5368	443332.195055577932	595
1	5377	443983.256393624498	596
1	5388	445055.473151570214	597
1	5395	445516.327793290867	598
1	5408	446552.998083969606	599
1	5413	446857.507097069202	600
1	5426	447754.817246552584	601
1	5431	448105.556917469976	602
1	5442	449347.462654626024	603
1	5451	449922.430347511572	604
1	5460	450766.471845656661	605
1	5469	451227.765291323913	606
1	5476	452002.565451012952	607
1	5489	453014.723360119415	608
1	5494	453367.560298182098	609
1	5503	453993.866403680322	610
1	5512	455129.018796142219	611
1	5521	456007.326149381725	612
1	5530	456325.54659959863	613
1	5539	457337.623040936916	614
1	5548	458065.712013747572	615
1	5557	458942.42522693242	616
1	5566	459591.369458148284	617
1	5577	460308.200480695842	618
1	5588	461203.408264182536	619
1	5593	461685.840579355164	620
1	5606	462532.148401206388	621
1	5615	463127.569854771747	622
1	5624	463970.112902345164	623
1	5633	464867.878459626837	624
1	5638	465466.731819044827	625
1	5649	466308.49744803275	626
1	5658	467115.208256430952	627
1	5667	467616.26426274891	628
1	5674	468345.610070508001	629
1	5687	469488.965723477332	630
1	5696	470354.928244231297	631
1	5705	470885.057449154584	632
1	5714	471388.161536911531	633
1	5719	471771.308696921943	634
1	5732	473143.02842603068	635
1	5737	473890.682018408581	636
1	5750	474597.588103311166	637
1	5759	475364.84426097016	638
1	5764	475856.265276158258	639
1	5775	476751.867131190405	640
1	5786	477539.964791201084	641
1	5791	477986.644152598485	642
1	5802	478501.991468248918	643
1	5811	479118.912059767201	644
1	5822	480199.770286353334	645
1	5831	480779.392175702407	646
1	5838	481282.286962866812	647
1	5849	482395.55061366412	648
1	5858	483113.282595947414	649
1	5867	483780.96838267523	650
1	5872	484247.07813039425	651
1	5883	485193.464780878305	652
1	5892	485669.113735528692	653
1	5901	486532.686360972032	654
1	5908	487078.821152541816	655
1	5917	487871.698823059008	656
1	5930	488690.670790616454	657
1	5935	489414.606762304933	658
1	5948	490409.828219376536	659
1	5955	490931.492433976414	660
1	5964	491547.036444861473	661
1	5975	492401.162407547267	662
1	5984	493213.609729986669	663
1	5991	493743.2612424251	664
1	6002	494983.116118283974	665
1	6011	495827.964928792821	666
1	6020	496689.683797024222	667
1	6025	497060.726323910089	668
1	6034	497671.395526360752	669
1	6047	498425.138924829694	670
1	6056	499234.09531270157	671
1	6061	499534.236944094332	672
1	6074	500473.523879377203	673
1	6079	500775.72010131556	674
1	6088	501601.782167376982	675
1	6099	502627.507568942414	676
1	6106	503433.175928564774	677
1	6115	504097.892327187614	678
1	6128	505398.894325364413	679
1	6135	505825.915128551456	680
1	6142	506337.820856273207	681
1	6151	507403.077032463658	682
1	6164	508257.670219615134	683
1	6171	508600.922313099759	684
1	6178	509054.971260577472	685
1	6189	509898.817681102114	686
1	6196	510522.670372528988	687
1	6205	511242.119508935171	688
1	6218	512466.413914505425	689
1	6227	513247.969024814698	690
1	6234	513956.620385544407	691
1	6241	514451.730795158106	692
1	6250	515167.785188276354	693
1	6263	515986.754619190502	694
1	6270	516727.48897369023	695
1	6279	517216.337027493897	696
1	6286	517531.448177062008	697
1	6295	518123.389550484749	698
1	6308	518985.856505669686	699
1	6313	519311.171097122165	700
1	6322	520076.806803792748	701
1	6331	520846.343557722899	702
1	6344	522124.819383630562	703
1	6351	522554.534907499361	704
1	6358	523072.702700179103	705
1	6371	524518.700402509454	706
1	6380	525186.185644939575	707
1	6387	525718.323085131157	708
1	6394	526310.58735600676	709
1	6403	527531.109970947762	710
1	6412	528190.251683676649	711
1	6421	528918.548861844499	712
1	6430	529554.709137277712	713
1	6441	530918.106001848389	714
1	6450	531760.968717606772	715
1	6459	532598.526452668045	716
1	6466	533157.65767861161	717
1	6479	534376.089991908555	718
1	6488	535151.068778336083	719
1	6497	535891.041694767808	720
1	6506	536635.514082619955	721
1	6513	537209.651601780241	722
1	6520	537932.255912851577	723
1	6531	538808.555736299638	724
1	6540	539616.200012108346	725
1	6547	540230.78049877662	726
1	6558	540853.496427973767	727
1	6565	541574.676947202569	728
1	6578	542835.966355819291	729
1	6585	543433.368466375432	730
1	6596	544316.505982121488	731
1	6601	544900.655891234091	732
1	6612	545896.61006913524	733
1	6621	546520.221437467298	734
1	6628	546989.133056765458	735
1	6641	548155.886062234676	736
1	6648	548875.591889675743	737
1	6659	549495.456953672728	738
1	6664	549858.119865506923	739
1	6675	550761.650821147523	740
1	6684	551680.364683549887	741
1	6691	552084.471598081326	742
1	6700	552760.791693907267	743
1	6709	553498.652047477698	744
1	6718	554163.437728118187	745
1	6729	555245.256856083906	746
1	6740	556095.694162370673	747
1	6749	556892.707133246622	748
1	6754	557607.448148774019	749
1	6763	558191.036612866483	750
1	6776	559171.905665332488	751
1	6783	559830.759403808079	752
1	6792	560481.449910672418	753
1	6803	561404.830724000968	754
1	6808	561759.669824363701	755
1	6817	562317.918973602392	756
1	6830	563685.923116793893	757
1	6837	564414.576685242392	758
1	6844	564767.031260160767	759
1	6857	566062.234451528677	760
1	6864	566715.834696404674	761
1	6875	567676.731392322146	762
1	6882	568368.056044774168	763
1	6893	569259.083443880119	764
1	6898	569782.136548915916	765
1	6909	570913.608137844169	766
1	6920	571687.41301735867	767
1	6925	571995.38800176237	768
1	6934	572793.163001630495	769
1	6943	573460.520817618857	770
1	6954	574603.895289637187	771
1	6963	575374.216864071825	772
1	6970	575732.299505872691	773
1	6983	577088.794116396495	774
1	6988	577488.813824113496	775
1	6999	578037.991761043706	776
1	7008	579206.855569453948	777
1	7017	579752.601798204743	778
1	7028	580488.272694731169	779
1	7035	581090.548961469941	780
1	7044	582199.734074156769	781
1	7051	582567.750348988958	782
1	7064	583843.224887503349	783
1	7073	584738.522474700623	784
1	7080	585489.149013441094	785
1	7087	585845.163196278774	786
1	7098	586833.909960323983	787
1	7109	587617.862965771967	788
1	7118	588412.801818922201	789
1	7125	589033.478196384424	790
1	7136	589710.407977597827	791
1	7141	590108.925815904552	792
1	7150	590577.338054822797	793
1	7159	591739.725869474972	794
1	7168	592547.897897567639	795
1	7177	593393.781249783972	796
1	7190	594346.529310056979	797
1	7195	594961.715492606202	798
1	7208	595977.114327298517	799
1	7213	596370.35295185637	800
1	7226	597686.679143132682	801
1	7231	598232.593006454448	802
1	7240	598990.929689258377	803
1	7249	599724.725947296287	804
1	7262	600823.554647946771	805
1	7269	601438.091131439473	806
1	7280	602067.330895643722	807
1	7289	602851.419785572257	808
1	7298	603658.135147579055	809
1	7307	604462.61338479821	810

