version 2
run Pipelined_3Teachers-52-20190105-10:57:29-2240
attr configname Pipelined_3Teachers
attr datetime 20190105-10:57:29
attr experiment Pipelined_3Teachers
attr inifile ../simulations/omnetpp.ini
attr iterationvars "$0=\"uniform\""
attr iterationvarsf uniform-
attr measurement "$0=\"uniform\""
attr network PipelinedExamSession
attr processid 2240
attr repetition 52
attr replication #52
attr resultdir results
attr runnumber 52
attr seedset 52
param **.teachersNumber 3
param **.answerTimeDistribution "\"uniform\""
param **.minUniform 300
param **.maxUniform 900
param **.scaleLognormal 6.2854
param **.shapeLognormal 0.4724

vector 0 PipelinedExamSession examinationTime:vector ETV
attr source examFinished
vector 1 PipelinedExamSession studentID:vector ETV
attr source student
0	3145	260161.341895815007	2014.9922221899
0	3156	261061.709132976853	2035.8752825763
0	3167	262100.701213488378	2254.2192071211
0	3174	262739.715917967283	2357.4753552675
0	3181	263376.992419268959	2163.3154666051
0	3192	264465.268268343085	2364.5670548547
0	3199	265002.932524960512	2004.7189610079
0	3210	265937.878613686212	2044.8576461524
0	3221	266823.482469655596	2241.3053678814
0	3226	267130.607385747157	1695.7065805793
0	3237	268053.110520495125	2062.1283848304
0	3246	268889.431888796412	2065.9494191408
0	3257	269462.498187879123	1979.0185445454
0	3266	270109.496264671929	1923.8494788297
0	3273	270804.000287549592	1896.2454820052
0	3282	271535.58022384534	2073.0820359662
0	3291	272330.004259245492	2220.5079945736
0	3302	273095.240397518523	2193.7542814761
0	3311	273587.241998361446	1874.4656912517
0	3316	274006.261944584571	1527.3041353561
0	3325	274910.821080766641	1815.5806832481
0	3334	275573.895579669647	1986.6535813082
0	3343	276200.801497092492	1828.7903370336
0	3352	277054.001770913623	1964.1450944357
0	3363	278038.169351499549	2206.6844007466
0	3370	278373.878659866772	1817.8963615559
0	3379	279098.578124726213	1900.6925282534
0	3390	280273.89563689942	2198.1710946187
0	3399	281199.298060219758	2529.4531356543
0	3410	281942.453789385059	2379.9689075444
0	3415	282324.597149854549	1951.5892834403
0	3426	283193.36867379027	1965.4105438851
0	3435	283767.671491205716	1825.2177018207
0	3442	284737.590474681952	1944.0161737148
0	3453	285266.337392432638	2014.9821074679
0	3460	286074.922783859097	1947.9385557119
0	3469	286915.961665660166	1965.5828848947
0	3478	287840.013323631161	2064.9368353654
0	3487	288512.31095879341	1898.5717899632
0	3498	289648.547160811746	2205.3998615127
0	3505	290023.158328374872	1758.6455051322
0	3518	291338.944589998597	2295.5214267131
0	3527	292140.822185436288	2456.0861825477
0	3536	292877.866088552425	2316.693360731
0	3543	293600.268992129738	2261.3244021311
0	3552	294239.659488480562	2098.8373030443
0	3563	295152.105892868737	2274.2398043163
0	3570	295652.500245301077	2021.4179656003
0	3577	296123.409519391158	1744.2087597214
0	3586	297132.813218235994	1980.7073253673
0	3597	298401.073122443656	2349.8107627966
0	3604	298770.835324097449	1846.7593166046
0	3613	300060.047938814412	2359.5309372526
0	3626	300936.258818116064	2399.3318941444
0	3635	301682.280648127223	2246.5947346296
0	3642	302361.425150837774	2215.6691716053
0	3651	302987.451545381943	2051.1927272659
0	3660	303715.420774044494	2033.1401259173
0	3671	304621.211237646664	2089.402308315
0	3680	305282.798523874978	2277.6870131493
0	3687	305811.520336987475	2020.6580453552
0	3694	306198.072538431759	1576.8613007851
0	3703	306991.418978199388	1708.6204543244
0	3716	308056.965158041592	2171.2801720016
0	3725	308950.420511327709	2390.456025023
0	3730	309653.915507392983	2221.6987847351
0	3739	310090.442549390744	2033.4773913492
0	3750	311385.426028724784	2435.0055173971
0	3759	311876.354827685306	2057.6153203379
0	3768	312577.912204898918	1867.0903766993
0	3779	313692.829989921326	2275.3324271645
0	3788	314491.064913617471	2565.3378099203
0	3793	314842.761598806852	2045.6049211789
0	3802	315356.898683309579	1664.0686933883
0	3813	316437.350608455042	1946.2856948376
0	3820	316791.64067851382	1660.3380632121
0	3829	317536.374466912845	1731.7117231898
0	3840	318530.21201170052	2038.2353215478
0	3847	319016.429864661792	1867.6802404225
0	3858	319762.052876455734	1882.4928919785
0	3867	320546.933171572188	1799.8246068601
0	3876	321279.608539491916	2045.390800992
0	3885	322133.864761842439	2268.598152604
0	3894	322777.768195839623	2120.6393192522
0	3903	323431.696419557581	1911.6486507934
0	3914	324345.687053538883	2040.4409612529
0	3921	325018.559907842452	2207.5989082921
0	3930	325588.09344847689	2041.8576462194
0	3939	326468.733433121839	2123.046379583
0	3948	327012.438448565104	1870.9994383156
0	3955	327579.131998540857	1845.4695103224
0	3964	328405.54482643495	1820.6815858372
0	3975	329023.609231738398	1824.1918229498
0	3982	329754.060797626177	1693.9288966823
0	3991	330625.269821612189	1967.1901268419
0	4000	331190.286288270752	1653.6879433785
0	4009	331845.876356586839	1803.3555960283
0	4022	332872.067878022814	2155.2062225528
0	4029	333619.064423069382	2235.5697845109
0	4040	334427.849305607403	2156.0333442874
0	4045	334805.817761365349	1933.7498833425
0	4050	335272.318405006106	1516.338268714
0	4065	336584.231632249454	2156.3823266421
0	4076	337243.54850831444	1923.7970892806
0	4085	337999.85862532633	1977.1139393561
0	4092	338728.982067201311	2094.8221073952
0	4099	339540.254586143444	2296.706077829
0	4112	340541.766620054866	2541.9079947285
0	4119	340954.372187610741	2190.6464391388
0	4130	341965.327982185434	2304.8252981622
0	4135	342593.519324949037	2051.7527048942
0	4144	342977.713785320546	1878.3696762286
0	4153	343670.933552272644	1705.6055700872
0	4162	344542.759218066956	1798.9963182248
0	4173	345631.168985227149	2081.5576490946
0	4184	346620.176299475159	2427.0867315587
0	4191	347227.411381993468	2217.3651745543
0	4202	348128.404648834865	2294.2024921998
0	4207	348492.31110848489	1872.1348090097
0	4218	349218.385998811599	1861.2941112835
0	4227	350025.910003529887	1897.505354695
0	4236	350569.900324987273	1786.3604335114
0	4243	351362.78959633785	2068.67875834
0	4254	352280.764066474537	2137.0984656271
0	4261	352611.242835922192	1576.3922637329
0	4270	353313.15229106697	1705.9285474475
0	4279	354032.144103990893	1672.577226162
0	4290	354936.425177101071	1983.7892726529
0	4297	355746.361692342933	1911.3231268711
0	4306	356372.068134276222	1783.0322542693
0	4319	357379.47455705146	1978.7753163837
0	4324	357734.197106771196	1675.2866154537
0	4335	358668.2538060006	2160.5518989265
0	4342	359015.749678434829	1636.2751213834
0	4353	360430.579343251909	2282.6069857925
0	4360	360852.910260530214	1973.7674571108
0	4373	361739.547035330931	2087.8463985398
0	4380	362401.026959856997	1876.1023244821
0	4391	363217.440444091359	2015.395270614
0	4398	363804.969509644458	2065.4224743135
0	4407	364665.971292788187	2224.5164246298
0	4416	365388.53660342286	2171.0961593315
0	4423	365804.637966910402	1705.0703193527
0	4436	367232.696430198873	2377.3238835856
0	4441	368029.439498344461	2408.4385440219
0	4454	368992.069074790949	2527.7702237014
0	4463	369862.016158131907	2629.319727933
0	4470	370657.400612672815	2541.2099938374
0	4479	371436.146616563225	2444.0775417723
0	4486	371920.160867320398	2058.1447091885
0	4495	372709.98192513364	1983.1633079331
0	4504	373712.524045771012	2224.5968563948
0	4515	374648.020846070746	2271.5071180835
0	4522	375029.288624972129	1765.7655176707
0	4533	375894.833460822726	1934.4215373974
0	4544	376702.103661512981	1983.2920624875
0	4553	377422.857543127636	1925.6413834635
0	4560	377944.308331003437	1797.6584862918
0	4569	378505.38390045988	1803.2802389469
0	4576	379260.165480058665	1837.307936931
0	4585	379776.241138950015	1765.1952195447
0	4598	380812.19882969747	1949.8599636834
0	4607	381676.844105450462	2124.2555235978
0	4616	382375.138463778447	2116.8643189128
0	4625	383099.792052106958	2287.5932224095
0	4634	383945.23995579223	2268.3958503418
0	4643	384593.688801303532	2218.5503375251
0	4652	385366.325809992876	2266.5337578859
0	4657	385842.934108665239	1897.694152873
0	4668	386638.476255303275	2044.7874539997
0	4677	387323.007636331048	1956.6818263382
0	4688	388188.429270079386	2257.7160559595
0	4693	388594.468890968737	1871.4925628621
0	4702	389130.805340409305	1731.0586703941
0	4711	389612.433563824769	1424.0042937454
0	4722	390622.766605345559	1738.8935508672
0	4733	391594.391694897812	2216.8863710482
0	4738	391936.308103892978	1945.1290767174
0	4751	393012.645234866094	2146.4770662133
0	4758	393726.022061565917	2131.6303666681
0	4769	394652.18889098617	2363.7104249094
0	4776	395205.830764677401	2193.1855298113
0	4787	396123.27053295451	2308.7356176227
0	4792	396437.265926739227	1785.0770357531
0	4805	397507.063517812665	2005.9163812548
0	4810	398248.310254281412	2125.0397213269
0	4823	399252.006581705089	2261.9210053235
0	4828	399648.282889416467	2141.2193716038
0	4839	400591.743338434051	2214.0280593652
0	4846	400973.280373541664	1721.2737918366
0	4857	402369.339806120868	2244.5827360265
0	4864	402931.265578977788	2212.0906020049
0	4875	403694.998939242239	2103.8649697322
0	4886	404586.878682905833	2170.8058085293
0	4895	405162.616458395521	2181.0564395506
0	4900	405557.614399865295	1843.0198563728
0	4911	406618.680953560422	2031.8022706546
0	4922	407558.507886389295	2395.8914279938
0	4929	408211.059009376938	2394.5590648334
0	4938	408904.918934684272	2246.2756829336
0	4949	409725.732684228595	2167.2247978393
0	4954	410046.335355564978	1599.754859833
0	4967	411300.589587958555	2214.2345738132
0	4976	411980.248761177088	2254.5160769485
0	4983	412409.582286514367	1919.4741431158
0	4992	413233.533044345702	1932.9434563871
0	5003	414226.712942635666	2246.4641814586
0	5008	414567.913149995755	1902.1197950933
0	5021	415622.782850218962	2209.7558814101
0	5026	416113.211992755557	1886.4990501199
0	5035	416817.827954655539	2072.6547968108
0	5046	417752.389802131827	2129.6069519129
0	5055	418639.52755266803	2244.7546154726
0	5066	419211.006696335996	2229.0129379369
0	5071	419554.97624133716	1690.7301583327
0	5082	420691.675306158165	2030.7468904182
0	5089	421175.006966711978	1964.000270376
0	5100	422188.8230994344	2226.6384044196
0	5107	422608.921850379581	1799.3271135259
0	5116	423272.150075342531	1777.8581033461
0	5125	424244.813536852623	1998.7209779676
0	5136	425310.996897798057	2184.5050998498
0	5145	426115.628930088158	2332.9654031899
0	5152	426704.545156890552	2098.0161543936
0	5163	427705.216255690928	2298.8227050751
0	5174	428540.40230303074	2260.9336999711
0	5183	429407.608447456758	2492.6397961099
0	5188	429829.662897018741	2070.4773320351
0	5199	430772.951803123604	2232.5495000929
0	5208	431288.731506513457	1881.1230590567
0	5215	432035.040465602676	1792.1981528867
0	5226	432792.806699126984	1946.8337939121
0	5233	433380.673895822863	1950.2463090699
0	5242	434020.189067954223	1747.8421743494
0	5251	434813.416425325002	1842.9632945918
0	5264	436011.603123927515	2495.339286793
0	5273	436878.116478072506	2467.0229484793
0	5278	437230.15956804159	2095.7563254051
0	5291	438299.090466415537	2287.487342488
0	5300	438806.531809363542	1928.415331291
0	5309	439475.971319340197	1798.8678249065
0	5316	440240.329380193753	1941.2389137782
0	5323	440649.158853990985	1842.6270446274
0	5336	441913.669055840028	2437.6977364998
0	5341	442467.126852041138	2205.6176163722
0	5354	443365.313502168311	2330.9088663664
0	5363	444189.531381195439	2275.8623253554
0	5370	444896.716573135955	2140.6099660322
0	5379	445685.691065154998	2320.3775629867
0	5390	446372.19081991355	2182.6594387181
0	5397	447042.754273535712	1966.267300956
0	5408	447717.733815126149	1798.9665658213
0	5417	448443.037390289856	2070.8465703763
0	5422	448816.382890613777	1602.1803625859
0	5435	450112.582909315852	2394.8490941897
0	5442	450622.106171166552	2179.0687808767
0	5449	451200.452873250497	1938.1355007179
0	5458	452009.459681203617	1896.8767718878
0	5467	452591.914191702409	1957.2748007253
0	5480	453397.304418124286	1991.7942855041
0	5489	454293.58954047787	2011.9312939234
0	5494	454828.244814975215	2054.0848642588
0	5505	455751.774992560996	2354.4705744367
0	5516	456520.633994461997	2227.0444539841
0	5525	457097.284305933891	1953.977753967
0	5532	457809.886244405089	2034.4989985228
0	5539	458394.680397352232	1874.0464028902
0	5548	459244.665973400726	2147.3816674668
0	5557	459760.55017048496	1818.1027136743
0	5568	460819.726062286674	1995.3166978899
0	5575	461645.849177101656	2106.4583737403
0	5588	462585.256368387519	2265.5238431878
0	5597	463391.624761931627	2217.1718270984
0	5604	463961.820572940662	2160.0479226094
0	5611	464407.438033260434	1822.1816648729
0	5620	465301.903462735965	1910.2787008043
0	5631	466299.222420947655	2199.7040378395
0	5640	467414.065839629649	2418.5950598214
0	5649	468193.082276964589	2357.9164527822
0	5660	469083.537404006376	2517.8002137691
0	5665	469419.752042787179	1979.6798750293
0	5674	470306.71483981426	2000.9985412471
0	5683	470754.2283935007	1670.6909894943
0	5692	471835.813327180251	1958.6886433884
0	5705	472700.822917744547	2060.2271954063
0	5712	473376.529799122393	2256.5882842988
0	5721	473975.422484613985	1995.4267413821
0	5732	474828.133024647862	2127.3101069033
0	5737	475154.488053778217	1674.7375133447
0	5746	475905.662730149955	1853.4416598268
0	5755	476927.13327454406	2099.0002498962
0	5766	477657.26080527532	1939.9031382054
0	5775	478094.466905621841	1595.9574958775
0	5782	478715.91999339874	1417.97756874
0	5791	479183.151452243357	1404.733189987
0	5802	480291.152408486262	2106.2800245825
0	5809	480851.537118572772	1865.9305766691
0	5818	481741.075484873757	2117.3985793255
0	5829	482590.40405410345	2140.1286504697
0	5838	483397.708150791035	2104.4470550492
0	5847	484183.78022806722	2020.5694553442
0	5858	485089.724682737173	2119.0819652751
0	5867	485926.746361702712	2240.8230795991
0	5874	486404.885823139952	2186.7538366467
0	5883	487384.906007582354	2295.1813248452
0	5894	488309.35731874782	2382.6109570451
0	5903	488742.51013454053	1996.5164596215
0	5910	489461.887271655755	1840.9979746677
0	5917	490176.207834156262	1866.8505154084
0	5926	490635.823589237438	1893.3134546969
0	5935	491156.292777461963	1677.4345535785
0	5946	491992.104512220281	1643.1159989443
0	5953	492763.682635221663	1918.706952408
0	5964	493478.141062147948	2003.0716753565
0	5973	494258.375796536017	1906.8380253855
0	5982	494830.617726221713	1908.0528967548
0	5991	495718.426640471476	2043.3485650923
0	5998	496274.525709729674	1941.205071006
0	6009	497032.789712213012	2108.2661120687
0	6016	497357.066372316363	1635.2164986078
0	6025	497980.848454311522	1412.9455184564
0	6038	498831.929632974821	1742.3263208941
0	6047	499725.043178116935	2139.3078077585
0	6052	500056.19667763825	1845.2897584531
0	6063	501296.838998934287	2464.9093659595
0	6072	501948.159098764915	2223.115920648
0	6083	502694.597842264954	2193.2896865532
0	6088	503319.268888235126	1928.9012458641
0	6099	504002.940999576855	2038.3489976171
0	6108	504785.133073898065	2090.5352316331
0	6119	505497.579146269742	1914.2136685085
0	6126	506327.473813667927	2134.6977251116
0	6137	507097.792888898436	2284.2193339951
0	6142	507484.96572976004	1987.3865834903
0	6153	508102.718038531053	1764.6136402152
0	6160	508638.279845193061	1540.4869562946
0	6171	509707.419799547676	2099.1131774616
0	6180	510561.155633954365	2334.8052015994
0	6189	511210.781293502112	2192.8739948664
0	6198	511940.107057197054	2052.6528947521
0	6205	512561.076269578223	1817.5989313982
0	6218	513429.859676398372	1915.8608910162
0	6225	513784.35165714476	1539.7159663495
0	6234	514297.040639910882	1438.6106176302
0	6243	514977.82615399923	1547.9664776009
0	6250	515293.489913921839	1481.0785856098
0	6263	516210.533270705527	1685.5820721947
0	6270	516785.790658369696	1748.0967119336
0	6281	517619.445504387876	2116.8972480576
0	6290	518493.788653984701	2283.2553832792
0	6297	519273.689172975754	2311.6569610778
0	6304	519644.043317064678	2024.5978126768
0	6317	521015.628474578296	2521.8398205936
0	6324	521677.466234006022	2344.1036709119
0	6333	522206.725856848096	2030.1930579823
0	6342	522773.381072049994	1757.7525974717
0	6351	523539.36804751869	1752.7955653612
0	6360	524154.092128342052	1890.0145809632
0	6367	524915.254815900733	2095.4807305243
0	6376	525531.958858296309	1842.2345650848
0	6387	526407.333737611804	2073.2319777366
0	6398	527284.105018246953	2228.2680029981
0	6405	527818.849858688225	2073.150728317
0	6412	528473.907145159354	1916.2246888038
0	6421	528973.078508209471	1688.9734899625
0	6434	530228.150827484239	2189.969473891
0	6439	530737.97691939402	2080.5480888113
0	6450	531943.113548029248	2457.3362165596
0	6459	532610.915288748254	2382.764461264
0	6468	533243.523439066519	2129.1293500923
0	6477	534054.995048325543	2047.7842425462
0	6484	534933.686450729181	2075.4256033804
0	6493	535653.476609615644	2033.675192669
0	6502	536547.232337901403	2030.7708287146
0	6513	537615.042345598375	2293.5961982701
0	6522	538263.95955048505	2316.6647218633
0	6533	539155.749131273513	2330.1235321909
0	6542	539805.165670579334	2179.4279575814
0	6551	540543.163821520319	2179.847922083
0	6556	541060.939712869039	1905.1905815955
0	6569	542059.466750873288	2254.301080294
0	6576	542821.584712900257	2278.4208913799
0	6585	543583.306502318045	2242.1797902323
0	6594	544250.399011652952	2190.9322607797
0	6601	544872.926378063893	2033.9279829059
0	6614	545792.922266665882	2129.7088438645
0	6621	546268.834982067382	1762.3602594249
0	6628	546746.101586753538	1600.5667086225
0	6641	547916.287330118975	2123.3650634531
0	6646	548303.516116691789	1940.708557656
0	6659	549495.772939687631	2238.7030481827
0	6666	550151.678230147845	2235.3909000289
0	6675	550934.077306883446	2164.9108719081
0	6686	551826.061164122111	2330.2882244345
0	6693	552488.454852998293	2139.8393657058
0	6704	553226.416907133571	2047.7876454592
0	6713	553912.387628713659	2086.3264645915
0	6720	554716.591895604543	2227.331140358
0	6731	555523.639795649834	2297.2228885163
0	6736	556064.145414484702	2151.757785771
0	6747	557017.249317560382	2259.494105028
0	6756	557344.189232261889	1820.5494366121
0	6767	558587.052798550613	2388.849895075
0	6774	559297.811485827006	2257.4999685399
0	6785	560296.479663765095	2576.2147984933
0	6790	560799.822354968674	2212.7695564181
0	6799	561354.709092574232	1910.9935356304
0	6808	562333.613562863358	2037.1338990983
0	6821	563401.383209321685	2393.9407983329
0	6826	564058.67068734955	2329.644171847
0	6837	564722.353793727271	2152.9528201092
0	6844	565122.72306536328	1721.3398560416
0	6857	566367.593236779832	2194.9903403409
0	6864	566819.897680264004	1945.6149640493
0	6873	567468.221285892689	1913.2671106607
0	6880	568007.117806747594	1639.5245699678
0	6893	569146.757675707379	2140.613676561
0	6900	569878.070236695969	2220.1604263857
0	6911	570449.590165726879	2007.4150371831
0	6920	571258.970937598535	2112.2132618912
0	6927	571859.224771522024	1920.1543461531
0	6934	572501.340004848355	2051.7498391215
0	6947	573413.209055364171	2154.2381177656
0	6954	573972.039855038786	1967.0409923885
0	6961	574536.450477456713	1879.212487489
0	6972	575659.297637315506	2246.0885819513
0	6979	576135.924325045237	1901.8666604999
0	6990	577063.808674318755	2025.5943072494
0	6997	577690.565430466125	1975.7236259524
0	7010	578858.964492660055	2425.0794579741
0	7019	579746.958061913068	2588.4202706628
0	7026	580286.656341003294	2248.4337927774
0	7035	581154.622334847267	2295.6578421872
0	7046	581979.115487868007	2232.1574259549
0	7053	582838.418137142475	2370.6288368907
0	7064	583613.861730415415	2353.8468119223
0	7073	584498.082948010456	2518.9674601424
0	7080	584989.767772425007	2135.4520753026
0	7091	585815.096975863021	2201.2352454476
0	7100	586706.02321769115	2207.9402696807
0	7105	587334.53876799908	2277.749652788
0	7116	588025.528617203277	2210.4316413403
0	7125	588860.226076561999	2154.2028588708
0	7132	589409.025766700548	1805.4679704364
0	7145	590218.489457108123	1960.717382608
0	7152	590932.487793965308	1806.0419304762
0	7163	591818.157764710529	2326.0875108652
0	7170	592429.249967867552	2210.7605107594
0	7177	592850.796005409254	1741.1657768302
0	7190	594213.668094947977	2395.5103302374
0	7197	594757.159468112556	2089.0329389367
0	7208	595648.373864823995	2301.9181521144
0	7217	596389.857789734421	2176.1896947864
0	7224	596914.233376225499	2065.7230388839
0	7235	597781.894756760491	2133.5208919365
0	7240	598168.611788051246	1778.7539983168
0	7253	598952.998684672682	1774.543324532
0	7258	599255.665176920636	1473.7704201601
0	7267	600114.311392139687	1788.0640287884
0	7278	600980.927195213778	2027.9285105411
0	7285	601453.372089145748	1744.6040938608
0	7298	602447.911638859703	2139.6526533645
0	7303	602880.838831141635	1701.7943163402
0	7314	603730.334851658015	1848.4967989381
0	7321	604434.762261388867	1986.8506225292
1	3145	260161.341895815007	348
1	3156	261061.709132976853	349
1	3167	262100.701213488378	350
1	3174	262739.715917967283	351
1	3181	263376.992419268959	352
1	3192	264465.268268343085	353
1	3199	265002.932524960512	354
1	3210	265937.878613686212	355
1	3221	266823.482469655596	356
1	3226	267130.607385747157	357
1	3237	268053.110520495125	358
1	3246	268889.431888796412	359
1	3257	269462.498187879123	360
1	3266	270109.496264671929	361
1	3273	270804.000287549592	362
1	3282	271535.58022384534	363
1	3291	272330.004259245492	364
1	3302	273095.240397518523	365
1	3311	273587.241998361446	366
1	3316	274006.261944584571	367
1	3325	274910.821080766641	368
1	3334	275573.895579669647	369
1	3343	276200.801497092492	370
1	3352	277054.001770913623	371
1	3363	278038.169351499549	372
1	3370	278373.878659866772	373
1	3379	279098.578124726213	374
1	3390	280273.89563689942	375
1	3399	281199.298060219758	376
1	3410	281942.453789385059	377
1	3415	282324.597149854549	378
1	3426	283193.36867379027	379
1	3435	283767.671491205716	380
1	3442	284737.590474681952	381
1	3453	285266.337392432638	382
1	3460	286074.922783859097	383
1	3469	286915.961665660166	384
1	3478	287840.013323631161	385
1	3487	288512.31095879341	386
1	3498	289648.547160811746	387
1	3505	290023.158328374872	388
1	3518	291338.944589998597	389
1	3527	292140.822185436288	390
1	3536	292877.866088552425	391
1	3543	293600.268992129738	392
1	3552	294239.659488480562	393
1	3563	295152.105892868737	394
1	3570	295652.500245301077	395
1	3577	296123.409519391158	396
1	3586	297132.813218235994	397
1	3597	298401.073122443656	398
1	3604	298770.835324097449	399
1	3613	300060.047938814412	400
1	3626	300936.258818116064	401
1	3635	301682.280648127223	402
1	3642	302361.425150837774	403
1	3651	302987.451545381943	404
1	3660	303715.420774044494	405
1	3671	304621.211237646664	406
1	3680	305282.798523874978	407
1	3687	305811.520336987475	408
1	3694	306198.072538431759	409
1	3703	306991.418978199388	410
1	3716	308056.965158041592	411
1	3725	308950.420511327709	412
1	3730	309653.915507392983	413
1	3739	310090.442549390744	414
1	3750	311385.426028724784	415
1	3759	311876.354827685306	416
1	3768	312577.912204898918	417
1	3779	313692.829989921326	418
1	3788	314491.064913617471	419
1	3793	314842.761598806852	420
1	3802	315356.898683309579	421
1	3813	316437.350608455042	422
1	3820	316791.64067851382	423
1	3829	317536.374466912845	424
1	3840	318530.21201170052	425
1	3847	319016.429864661792	426
1	3858	319762.052876455734	427
1	3867	320546.933171572188	428
1	3876	321279.608539491916	429
1	3885	322133.864761842439	430
1	3894	322777.768195839623	431
1	3903	323431.696419557581	432
1	3914	324345.687053538883	433
1	3921	325018.559907842452	434
1	3930	325588.09344847689	435
1	3939	326468.733433121839	436
1	3948	327012.438448565104	437
1	3955	327579.131998540857	438
1	3964	328405.54482643495	439
1	3975	329023.609231738398	440
1	3982	329754.060797626177	441
1	3991	330625.269821612189	442
1	4000	331190.286288270752	443
1	4009	331845.876356586839	444
1	4022	332872.067878022814	445
1	4029	333619.064423069382	446
1	4040	334427.849305607403	447
1	4045	334805.817761365349	448
1	4050	335272.318405006106	449
1	4065	336584.231632249454	450
1	4076	337243.54850831444	451
1	4085	337999.85862532633	452
1	4092	338728.982067201311	453
1	4099	339540.254586143444	454
1	4112	340541.766620054866	455
1	4119	340954.372187610741	456
1	4130	341965.327982185434	457
1	4135	342593.519324949037	458
1	4144	342977.713785320546	459
1	4153	343670.933552272644	460
1	4162	344542.759218066956	461
1	4173	345631.168985227149	462
1	4184	346620.176299475159	463
1	4191	347227.411381993468	464
1	4202	348128.404648834865	465
1	4207	348492.31110848489	466
1	4218	349218.385998811599	467
1	4227	350025.910003529887	468
1	4236	350569.900324987273	469
1	4243	351362.78959633785	470
1	4254	352280.764066474537	471
1	4261	352611.242835922192	472
1	4270	353313.15229106697	473
1	4279	354032.144103990893	474
1	4290	354936.425177101071	475
1	4297	355746.361692342933	476
1	4306	356372.068134276222	477
1	4319	357379.47455705146	478
1	4324	357734.197106771196	479
1	4335	358668.2538060006	480
1	4342	359015.749678434829	481
1	4353	360430.579343251909	482
1	4360	360852.910260530214	483
1	4373	361739.547035330931	484
1	4380	362401.026959856997	485
1	4391	363217.440444091359	486
1	4398	363804.969509644458	487
1	4407	364665.971292788187	488
1	4416	365388.53660342286	489
1	4423	365804.637966910402	490
1	4436	367232.696430198873	491
1	4441	368029.439498344461	492
1	4454	368992.069074790949	493
1	4463	369862.016158131907	494
1	4470	370657.400612672815	495
1	4479	371436.146616563225	496
1	4486	371920.160867320398	497
1	4495	372709.98192513364	498
1	4504	373712.524045771012	499
1	4515	374648.020846070746	500
1	4522	375029.288624972129	501
1	4533	375894.833460822726	502
1	4544	376702.103661512981	503
1	4553	377422.857543127636	504
1	4560	377944.308331003437	505
1	4569	378505.38390045988	506
1	4576	379260.165480058665	507
1	4585	379776.241138950015	508
1	4598	380812.19882969747	509
1	4607	381676.844105450462	510
1	4616	382375.138463778447	511
1	4625	383099.792052106958	512
1	4634	383945.23995579223	513
1	4643	384593.688801303532	514
1	4652	385366.325809992876	515
1	4657	385842.934108665239	516
1	4668	386638.476255303275	517
1	4677	387323.007636331048	518
1	4688	388188.429270079386	519
1	4693	388594.468890968737	520
1	4702	389130.805340409305	521
1	4711	389612.433563824769	522
1	4722	390622.766605345559	523
1	4733	391594.391694897812	524
1	4738	391936.308103892978	525
1	4751	393012.645234866094	526
1	4758	393726.022061565917	527
1	4769	394652.18889098617	528
1	4776	395205.830764677401	529
1	4787	396123.27053295451	530
1	4792	396437.265926739227	531
1	4805	397507.063517812665	532
1	4810	398248.310254281412	533
1	4823	399252.006581705089	534
1	4828	399648.282889416467	535
1	4839	400591.743338434051	536
1	4846	400973.280373541664	537
1	4857	402369.339806120868	538
1	4864	402931.265578977788	539
1	4875	403694.998939242239	540
1	4886	404586.878682905833	541
1	4895	405162.616458395521	542
1	4900	405557.614399865295	543
1	4911	406618.680953560422	544
1	4922	407558.507886389295	545
1	4929	408211.059009376938	546
1	4938	408904.918934684272	547
1	4949	409725.732684228595	548
1	4954	410046.335355564978	549
1	4967	411300.589587958555	550
1	4976	411980.248761177088	551
1	4983	412409.582286514367	552
1	4992	413233.533044345702	553
1	5003	414226.712942635666	554
1	5008	414567.913149995755	555
1	5021	415622.782850218962	556
1	5026	416113.211992755557	557
1	5035	416817.827954655539	558
1	5046	417752.389802131827	559
1	5055	418639.52755266803	560
1	5066	419211.006696335996	561
1	5071	419554.97624133716	562
1	5082	420691.675306158165	563
1	5089	421175.006966711978	564
1	5100	422188.8230994344	565
1	5107	422608.921850379581	566
1	5116	423272.150075342531	567
1	5125	424244.813536852623	568
1	5136	425310.996897798057	569
1	5145	426115.628930088158	570
1	5152	426704.545156890552	571
1	5163	427705.216255690928	572
1	5174	428540.40230303074	573
1	5183	429407.608447456758	574
1	5188	429829.662897018741	575
1	5199	430772.951803123604	576
1	5208	431288.731506513457	577
1	5215	432035.040465602676	578
1	5226	432792.806699126984	579
1	5233	433380.673895822863	580
1	5242	434020.189067954223	581
1	5251	434813.416425325002	582
1	5264	436011.603123927515	583
1	5273	436878.116478072506	584
1	5278	437230.15956804159	585
1	5291	438299.090466415537	586
1	5300	438806.531809363542	587
1	5309	439475.971319340197	588
1	5316	440240.329380193753	589
1	5323	440649.158853990985	590
1	5336	441913.669055840028	591
1	5341	442467.126852041138	592
1	5354	443365.313502168311	593
1	5363	444189.531381195439	594
1	5370	444896.716573135955	595
1	5379	445685.691065154998	596
1	5390	446372.19081991355	597
1	5397	447042.754273535712	598
1	5408	447717.733815126149	599
1	5417	448443.037390289856	600
1	5422	448816.382890613777	601
1	5435	450112.582909315852	602
1	5442	450622.106171166552	603
1	5449	451200.452873250497	604
1	5458	452009.459681203617	605
1	5467	452591.914191702409	606
1	5480	453397.304418124286	607
1	5489	454293.58954047787	608
1	5494	454828.244814975215	609
1	5505	455751.774992560996	610
1	5516	456520.633994461997	611
1	5525	457097.284305933891	612
1	5532	457809.886244405089	613
1	5539	458394.680397352232	614
1	5548	459244.665973400726	615
1	5557	459760.55017048496	616
1	5568	460819.726062286674	617
1	5575	461645.849177101656	618
1	5588	462585.256368387519	619
1	5597	463391.624761931627	620
1	5604	463961.820572940662	621
1	5611	464407.438033260434	622
1	5620	465301.903462735965	623
1	5631	466299.222420947655	624
1	5640	467414.065839629649	625
1	5649	468193.082276964589	626
1	5660	469083.537404006376	627
1	5665	469419.752042787179	628
1	5674	470306.71483981426	629
1	5683	470754.2283935007	630
1	5692	471835.813327180251	631
1	5705	472700.822917744547	632
1	5712	473376.529799122393	633
1	5721	473975.422484613985	634
1	5732	474828.133024647862	635
1	5737	475154.488053778217	636
1	5746	475905.662730149955	637
1	5755	476927.13327454406	638
1	5766	477657.26080527532	639
1	5775	478094.466905621841	640
1	5782	478715.91999339874	641
1	5791	479183.151452243357	642
1	5802	480291.152408486262	643
1	5809	480851.537118572772	644
1	5818	481741.075484873757	645
1	5829	482590.40405410345	646
1	5838	483397.708150791035	647
1	5847	484183.78022806722	648
1	5858	485089.724682737173	649
1	5867	485926.746361702712	650
1	5874	486404.885823139952	651
1	5883	487384.906007582354	652
1	5894	488309.35731874782	653
1	5903	488742.51013454053	654
1	5910	489461.887271655755	655
1	5917	490176.207834156262	656
1	5926	490635.823589237438	657
1	5935	491156.292777461963	658
1	5946	491992.104512220281	659
1	5953	492763.682635221663	660
1	5964	493478.141062147948	661
1	5973	494258.375796536017	662
1	5982	494830.617726221713	663
1	5991	495718.426640471476	664
1	5998	496274.525709729674	665
1	6009	497032.789712213012	666
1	6016	497357.066372316363	667
1	6025	497980.848454311522	668
1	6038	498831.929632974821	669
1	6047	499725.043178116935	670
1	6052	500056.19667763825	671
1	6063	501296.838998934287	672
1	6072	501948.159098764915	673
1	6083	502694.597842264954	674
1	6088	503319.268888235126	675
1	6099	504002.940999576855	676
1	6108	504785.133073898065	677
1	6119	505497.579146269742	678
1	6126	506327.473813667927	679
1	6137	507097.792888898436	680
1	6142	507484.96572976004	681
1	6153	508102.718038531053	682
1	6160	508638.279845193061	683
1	6171	509707.419799547676	684
1	6180	510561.155633954365	685
1	6189	511210.781293502112	686
1	6198	511940.107057197054	687
1	6205	512561.076269578223	688
1	6218	513429.859676398372	689
1	6225	513784.35165714476	690
1	6234	514297.040639910882	691
1	6243	514977.82615399923	692
1	6250	515293.489913921839	693
1	6263	516210.533270705527	694
1	6270	516785.790658369696	695
1	6281	517619.445504387876	696
1	6290	518493.788653984701	697
1	6297	519273.689172975754	698
1	6304	519644.043317064678	699
1	6317	521015.628474578296	700
1	6324	521677.466234006022	701
1	6333	522206.725856848096	702
1	6342	522773.381072049994	703
1	6351	523539.36804751869	704
1	6360	524154.092128342052	705
1	6367	524915.254815900733	706
1	6376	525531.958858296309	707
1	6387	526407.333737611804	708
1	6398	527284.105018246953	709
1	6405	527818.849858688225	710
1	6412	528473.907145159354	711
1	6421	528973.078508209471	712
1	6434	530228.150827484239	713
1	6439	530737.97691939402	714
1	6450	531943.113548029248	715
1	6459	532610.915288748254	716
1	6468	533243.523439066519	717
1	6477	534054.995048325543	718
1	6484	534933.686450729181	719
1	6493	535653.476609615644	720
1	6502	536547.232337901403	721
1	6513	537615.042345598375	722
1	6522	538263.95955048505	723
1	6533	539155.749131273513	724
1	6542	539805.165670579334	725
1	6551	540543.163821520319	726
1	6556	541060.939712869039	727
1	6569	542059.466750873288	728
1	6576	542821.584712900257	729
1	6585	543583.306502318045	730
1	6594	544250.399011652952	731
1	6601	544872.926378063893	732
1	6614	545792.922266665882	733
1	6621	546268.834982067382	734
1	6628	546746.101586753538	735
1	6641	547916.287330118975	736
1	6646	548303.516116691789	737
1	6659	549495.772939687631	738
1	6666	550151.678230147845	739
1	6675	550934.077306883446	740
1	6686	551826.061164122111	741
1	6693	552488.454852998293	742
1	6704	553226.416907133571	743
1	6713	553912.387628713659	744
1	6720	554716.591895604543	745
1	6731	555523.639795649834	746
1	6736	556064.145414484702	747
1	6747	557017.249317560382	748
1	6756	557344.189232261889	749
1	6767	558587.052798550613	750
1	6774	559297.811485827006	751
1	6785	560296.479663765095	752
1	6790	560799.822354968674	753
1	6799	561354.709092574232	754
1	6808	562333.613562863358	755
1	6821	563401.383209321685	756
1	6826	564058.67068734955	757
1	6837	564722.353793727271	758
1	6844	565122.72306536328	759
1	6857	566367.593236779832	760
1	6864	566819.897680264004	761
1	6873	567468.221285892689	762
1	6880	568007.117806747594	763
1	6893	569146.757675707379	764
1	6900	569878.070236695969	765
1	6911	570449.590165726879	766
1	6920	571258.970937598535	767
1	6927	571859.224771522024	768
1	6934	572501.340004848355	769
1	6947	573413.209055364171	770
1	6954	573972.039855038786	771
1	6961	574536.450477456713	772
1	6972	575659.297637315506	773
1	6979	576135.924325045237	774
1	6990	577063.808674318755	775
1	6997	577690.565430466125	776
1	7010	578858.964492660055	777
1	7019	579746.958061913068	778
1	7026	580286.656341003294	779
1	7035	581154.622334847267	780
1	7046	581979.115487868007	781
1	7053	582838.418137142475	782
1	7064	583613.861730415415	783
1	7073	584498.082948010456	784
1	7080	584989.767772425007	785
1	7091	585815.096975863021	786
1	7100	586706.02321769115	787
1	7105	587334.53876799908	788
1	7116	588025.528617203277	789
1	7125	588860.226076561999	790
1	7132	589409.025766700548	791
1	7145	590218.489457108123	792
1	7152	590932.487793965308	793
1	7163	591818.157764710529	794
1	7170	592429.249967867552	795
1	7177	592850.796005409254	796
1	7190	594213.668094947977	797
1	7197	594757.159468112556	798
1	7208	595648.373864823995	799
1	7217	596389.857789734421	800
1	7224	596914.233376225499	801
1	7235	597781.894756760491	802
1	7240	598168.611788051246	803
1	7253	598952.998684672682	804
1	7258	599255.665176920636	805
1	7267	600114.311392139687	806
1	7278	600980.927195213778	807
1	7285	601453.372089145748	808
1	7298	602447.911638859703	809
1	7303	602880.838831141635	810
1	7314	603730.334851658015	811
1	7321	604434.762261388867	812

