version 2
run Pipelined_3Teachers-82-20190105-10:57:36-22036
attr configname Pipelined_3Teachers
attr datetime 20190105-10:57:36
attr experiment Pipelined_3Teachers
attr inifile ../simulations/omnetpp.ini
attr iterationvars "$0=\"uniform\""
attr iterationvarsf uniform-
attr measurement "$0=\"uniform\""
attr network PipelinedExamSession
attr processid 22036
attr repetition 82
attr replication #82
attr resultdir results
attr runnumber 82
attr seedset 82
param **.teachersNumber 3
param **.answerTimeDistribution "\"uniform\""
param **.minUniform 300
param **.maxUniform 900
param **.scaleLognormal 6.2854
param **.shapeLognormal 0.4724

vector 0 PipelinedExamSession examinationTime:vector ETV
attr source examFinished
vector 1 PipelinedExamSession studentID:vector ETV
attr source student
0	3212	260394.986216817067	1794.3319032434
0	3221	261201.17836813444	2112.1208920609
0	3226	261559.057035902531	1940.1766879018
0	3239	262296.057981625216	1901.0717648081
0	3244	262769.265556242334	1568.0871881079
0	3253	263143.946735188382	1325.5461857188
0	3264	264316.313041839766	2020.2550602145
0	3271	264920.478626154381	1795.3114445787
0	3280	265578.812523605319	1629.9926809967
0	3293	266411.087825847807	1948.8144704606
0	3300	266967.944813473168	1757.1211414877
0	3311	267843.601144664007	2201.6595907509
0	3320	268725.651446823048	2314.5636209752
0	3329	269438.187936740013	2352.9467483517
0	3334	269781.713216425868	1938.1120717619
0	3347	270819.1933875438	2093.5419407208
0	3356	271674.337482126447	2236.1495453864
0	3365	272522.95452863911	2454.3289319146
0	3374	273327.623326890188	2508.4299393464
0	3383	274040.701172500866	2366.3636903744
0	3390	274775.872215488943	2252.9176868498
0	3401	275690.877036983164	2363.253710093
0	3410	276571.201458200829	2530.5002857
0	3419	277258.901897957565	2397.1146158874
0	3428	277965.217595547454	2274.3405585643
0	3435	278474.305219296382	1903.1037610956
0	3442	278859.094508690776	1600.1926107332
0	3455	280171.675686445104	2206.4580908976
0	3460	280661.31744123997	2152.7124014217
0	3469	281119.919687882083	1717.0493257698
0	3480	281825.678110029565	1654.0024235845
0	3491	282744.741343287768	1937.0745339431
0	3498	283539.258091896789	2330.6317850947
0	3505	284022.459156531857	1944.4015512709
0	3516	285099.614299088733	2354.872955801
0	3523	285589.654027204977	1950.9138967842
0	3532	286105.410328460874	1600.6686613429
0	3545	287324.258668441343	2106.7993756849
0	3554	288206.366793578508	2407.2520702612
0	3563	288956.950699165481	2373.2817295007
0	3568	289336.473804060387	2012.215135619
0	3577	290146.259018266591	1939.8922246881
0	3586	290543.307470809686	1586.3567716442
0	3595	291488.074230216461	1704.8125237226
0	3606	292843.252657866123	2308.5787494667
0	3613	293315.252694860118	1981.9136466365
0	3622	293690.375122334825	1556.4416579436
0	3631	294795.759253576415	1866.9216675684
0	3640	295404.437044775131	1847.7034086362
0	3653	296517.282572435233	2152.9847072437
0	3660	297000.087756011653	1742.2149551567
0	3669	297705.041790241393	1842.4453042913
0	3678	298426.79466018455	1909.5120877493
0	3685	298906.545124948042	1853.0132312793
0	3696	299738.691139407474	1957.2864827234
0	3703	300306.293002562616	1850.4249266814
0	3712	301099.80995832013	1970.9411538206
0	3721	302401.206850865875	2378.6484797951
0	3732	303128.25598376805	2297.2722883802
0	3743	303941.259716637452	2329.7652327921
0	3752	304823.224305734058	2327.2069887724
0	3761	305515.510124992599	2326.5712029766
0	3766	306005.678496323546	2064.4187796861
0	3775	306587.489892868345	1764.2655871343
0	3788	307585.089481528869	2069.5793565363
0	3793	308202.241366216934	2013.4194156155
0	3802	308792.664503585568	2012.4230617192
0	3811	309622.150957910365	2037.0614763815
0	3820	310320.277362735963	2052.3644851986
0	3831	311230.158125935143	2176.7379683442
0	3838	311774.450190458467	1887.6800147351
0	3847	312652.747398242377	2015.3685315046
0	3852	312984.697745880134	1535.2801549248
0	3867	314006.357129802949	1716.4725228678
0	3874	314647.344965441174	1592.1779023949
0	3883	315320.465147914387	1896.8112181406
0	3892	316519.875840190821	2231.7053137813
0	3903	317067.578446492576	2032.3615724221
0	3914	317849.374093953543	2028.132938873
0	3919	318403.56707889589	1825.9156925138
0	3928	319078.814915847056	1790.4839179013
0	3939	319798.923784866952	1949.5496909134
0	3948	320681.831785803684	2137.6900568604
0	3955	320992.471966892504	1719.2299616989
0	3964	321667.591052083322	1639.0385080129
0	3975	322741.832982748771	1831.1672262847
0	3982	323436.77223999987	1989.064764278
0	3995	324399.955194024394	2080.0830530003
0	4002	324838.915478764127	1950.4674601369
0	4011	325595.641154190551	1927.1453396883
0	4018	326008.042268827583	1608.0870748032
0	4027	326655.494886310796	1626.6522252001
0	4040	327549.9092451297	1843.6127936002
0	4049	328355.682442104469	2241.1359472666
0	4054	328668.810995807896	1928.2014892437
0	4063	329334.280334226812	1784.3710890971
0	4074	330365.120782842885	2009.4383407384
0	4085	331409.653907083001	2168.2934906334
0	4092	331797.287676483419	2016.9967212249
0	4101	332718.813385069397	2042.1249988955
0	4108	333628.655331535291	2219.0014244523
0	4117	334199.753358587649	2046.870284155
0	4130	335467.087552836192	2449.5182694867
0	4135	336016.36873707178	2127.9429815244
0	4144	336735.511912917745	1983.9548384305
0	4153	337507.890730490935	2040.8031776547
0	4164	338506.275397120071	2163.5207030922
0	4171	339040.380101557848	1953.0783566181
0	4182	340207.096799835589	2368.7310162932
0	4193	340951.85947953726	2310.0967213511
0	4202	341539.791133208227	2052.3694219999
0	4211	342258.138637477559	2016.2389526144
0	4216	342560.764598893029	1608.9051193558
0	4227	343519.360504299429	1979.5693710912
0	4234	344417.700019944486	2159.5613824669
0	4243	345134.512657625627	1995.8536518272
0	4252	345930.656095175099	1984.356708359
0	4265	347018.711619777632	2214.6668225527
0	4272	347689.660565648255	2124.4354302529
0	4281	348368.21847176182	1903.739623446
0	4288	348754.062913963599	1735.351294186
0	4301	349823.924727318837	1988.2279072423
0	4310	350518.743086373462	2149.6819269843
0	4319	351377.708199620275	2287.7496622503
0	4328	352258.93244887705	2435.0077215582
0	4337	352884.343047486647	2365.5999611132
0	4346	353531.704628141626	2153.9964285214
0	4355	354410.837805178046	2151.905356301
0	4360	354786.173709807947	1901.8306623213
0	4373	355674.141963757604	2142.437335616
0	4382	356509.104474820226	2098.2666696422
0	4391	357266.33793208751	2366.7096686549
0	4398	357812.246680911659	2138.1047171541
0	4405	358274.529324844509	1765.4248500243
0	4416	359131.444024248078	1865.1060921606
0	4427	360107.344330614462	2213.456663629
0	4434	360549.845458427473	2056.6444917116
0	4441	361662.537583848491	2293.2080150116
0	4454	362587.768689589605	2480.4243589751
0	4463	363428.116613952473	2480.2291022614
0	4472	363958.757806755632	2158.58535273
0	4481	364835.143281659141	2247.3745920695
0	4488	365402.960277115956	1974.8436631635
0	4499	366287.619921611652	2328.862114856
0	4508	366885.15408737588	2050.0108057167
0	4517	367736.580698657811	2196.4302906767
0	4526	368527.410075673864	2239.7901540622
0	4531	368941.879634605751	2056.7255472299
0	4540	369298.816495249078	1562.2357965913
0	4551	370562.684065941752	2035.2739902679
0	4562	371434.090928267718	2264.612812316
0	4569	372234.823511028693	2363.1686386652
0	4580	372979.352720081837	2377.3031716235
0	4589	373819.464957201884	2385.3740289342
0	4596	374275.374714424864	1988.5494885966
0	4603	375049.306303588704	2069.9535835069
0	4612	375587.035172525824	1767.5702153239
0	4623	376764.172998955504	2070.5070763361
0	4634	377574.185615871132	2264.3989856355
0	4643	378170.381504483551	2022.7980692871
0	4652	378836.164910299734	2058.1024565734
0	4657	379217.286571534381	1643.1009556632
0	4666	379958.470365498245	1788.0888610147
0	4675	380836.172046186434	2000.0071358867
0	4684	381814.837805321471	2128.1374637503
0	4695	382857.90850580673	2344.6422776207
0	4704	383559.916002256826	2165.2912995312
0	4715	384341.210065735534	2051.5131879598
0	4722	385102.02683522369	2058.9131194633
0	4729	385901.907399343357	2139.148654975
0	4738	386462.841453915492	2121.63138818
0	4749	387358.987807435945	2129.1124062147
0	4760	388314.092233590812	2301.7272333149
0	4769	389076.900346437499	2414.258712111
0	4774	389397.794309584454	1878.6326538306
0	4785	390465.469415159926	2151.3771815691
0	4792	390858.947288570956	1782.0469421335
0	4801	391234.656530153037	1301.5853579622
0	4814	392120.841394783959	1638.8329032809
0	4819	392462.241336749897	1535.5187198147
0	4828	393199.878561124236	1632.64239938
0	4837	394012.274515908242	1891.4331211243
0	4846	395260.430214973198	2291.3500038441
0	4855	395931.112517556207	2197.6928418037
0	4866	396708.583618747101	2160.6345493812
0	4873	397289.978611283035	1845.2324374113
0	4884	398286.270349659056	2003.8083453197
0	4895	399190.382139338212	2469.0379033796
0	4902	400020.203544711726	2487.0440645143
0	4909	400441.060390882226	2081.8051259033
0	4918	400927.371931728008	1736.9897923898
0	4927	402085.97671967003	2059.9336490035
0	4938	403021.661284379693	2332.7104867436
0	4949	403896.670167613807	2407.0773184765
0	4956	404535.611718194592	2285.1627526805
0	4963	405232.751251850309	2164.6485698875
0	4972	405674.244821956414	1777.5746543426
0	4985	406702.545973146366	2102.6562814135
0	4990	407169.839938357504	1774.1841792595
0	4999	407697.348684724452	1718.7710230239
0	5008	408297.554995073038	1595.0090219267
0	5021	409215.434955619308	1836.4305574447
0	5026	409682.082726806435	1702.3539878894
0	5037	410618.782781995866	1999.9479891267
0	5046	411201.777242962304	1986.342287343
0	5053	411738.107702834565	1757.0344763808
0	5064	412548.884249478611	1797.2829331644
0	5075	413291.485946020144	1788.4729846381
0	5084	414140.316475275937	2013.4666536469
0	5089	414635.725632123682	1994.4223402999
0	5098	415177.949652588028	1886.4637065679
0	5107	416043.849466647986	1903.532991372
0	5116	416452.457188675214	1630.4460464045
0	5127	417557.902100170065	1863.5146952234
0	5136	418233.225052803789	1840.8383700997
0	5143	418798.557328060304	1798.1353479903
0	5152	419377.223762311076	1759.3022808898
0	5161	419831.329738581588	1423.2724928297
0	5172	420937.186717707698	1959.8583719227
0	5181	421692.299489770119	2165.2183604892
0	5188	422034.878951450844	1826.7189867329
0	5199	422932.790920324658	1885.9446436632
0	5206	423446.564021380653	1590.3561887797
0	5219	424817.649243772065	2461.1482684035
0	5228	425641.02414543744	2514.8705495987
0	5235	426221.738009713626	2222.2081539687
0	5242	426617.343129962719	1799.6938861907
0	5253	427648.228603089263	2007.2044576518
0	5262	428208.244985248929	1830.2610260434
0	5269	429040.953879850021	2053.1666642055
0	5278	429736.110901879182	1916.9028667733
0	5289	430478.66913308393	1972.7132989559
0	5300	431265.804826375132	1975.5014270078
0	5305	432013.612640043756	1926.8950071651
0	5316	432703.697747597506	2205.5275778286
0	5327	433591.422848543187	2325.6180221681
0	5336	434434.010012727266	2346.4036103804
0	5343	435119.261645246332	2409.1939119156
0	5350	435528.482903027942	1937.0600544848
0	5359	436115.347074111959	1681.3370613847
0	5372	436990.980315674133	1814.0383080114
0	5379	437341.274736402593	1475.5256033968
0	5390	438420.355400908775	1914.6624193992
0	5395	438774.077063519544	1783.0967478454
0	5408	439615.174203878305	1901.4408082701
0	5417	440403.778342204205	1983.4229412954
0	5422	440737.390671763606	1768.3027873747
0	5433	441980.927135422863	2365.7529315446
0	5442	442820.030970638655	2416.2526284344
0	5449	443138.965394720472	2000.9231567848
0	5462	444249.097238481082	2224.4411292952
0	5469	444904.52968929898	2055.491008563
0	5476	445564.180421875827	2134.6479748841
0	5487	446265.762463538013	2016.6652250569
0	5498	447348.718422604762	2377.5889255106
0	5505	448060.083338990845	2215.7135491725
0	5514	448864.800476934798	2406.6713496577
0	5525	449857.91495949965	2509.1965368949
0	5534	450380.656050005965	2232.2047514375
0	5541	450914.898199634664	1876.692880271
0	5548	451360.869565140493	1502.9546056408
0	5557	452394.201324787028	2013.5452747811
0	5568	452952.02691745948	1792.3531320412
0	5571	453314.851842261888	1513.5564835276
0	5584	454457.31906238947	1877.8795825783
0	5595	455258.458358142562	1911.6815299261
0	5604	455824.165647709779	1691.2551202811
0	5613	456458.494866779111	1554.6668360475
0	5622	457232.196586160027	1778.0946743209
0	5631	457702.484039682933	1824.4133810978
0	5638	458150.531557481774	1667.8234233521
0	5647	459283.528400911055	1972.1021604259
0	5656	460094.879957707636	1986.3485947251
0	5667	460828.506717318707	2134.3545248732
0	5674	461589.950358867683	2007.7184031252
0	5685	462664.011412952133	2291.1475944333
0	5694	463240.843787323721	1997.4412324838
0	5701	464080.102559924163	2026.928048674
0	5712	465020.105988672042	2244.0974966157
0	5719	465715.990823088252	2088.3924353868
0	5730	466579.669234715441	2143.9097992145
0	5737	467059.506894880944	1828.5714476835
0	5750	468212.720726430454	2143.2462898549
0	5757	468960.296663269439	2332.2828093544
0	5764	469431.409065937662	2053.1936160754
0	5773	470485.221714153923	2272.5009877235
0	5784	471397.611539578102	2400.6648480892
0	5795	472181.393965613134	2298.1454147492
0	5804	473002.371178334616	2300.3132080659
0	5809	473460.793011216484	2029.1771341581
0	5818	474080.511159310155	1899.117193697
0	5827	474726.299322629385	1723.9281442948
0	5840	476196.308264136351	2438.0004297942
0	5849	477040.74554792609	2488.2584972307
0	5858	477937.918153451792	2628.8875681814
0	5865	478751.948234578631	2555.6399704423
0	5874	479245.54806067612	2204.80251275
0	5881	479879.722739942408	1941.8045864906
0	5894	480956.610055407546	2157.3681692127
0	5899	481321.940712863616	2023.7285344396
0	5910	482158.856151904948	1973.740370851
0	5921	483238.111444842108	2281.5013894346
0	5930	484125.721656577699	2413.7274160981
0	5937	484731.370866671242	2325.367836887
0	5948	485885.262693604492	2647.1512487624
0	5955	486669.21477159489	2543.4931150172
0	5962	487027.485223626755	2037.7073437907
0	5971	487963.071029260792	2077.8083356563
0	5982	488865.178178530224	2193.3756021783
0	5993	489856.441346090325	2301.6360404436
0	6000	490309.646656271108	1915.0154407136
0	6007	490989.290103362911	1937.0656678453
0	6016	491664.235110254996	1807.7937641647
0	6025	492413.926796894559	1820.9037755616
0	6036	493328.409206075632	2174.5345994364
0	6045	493984.83984991912	1960.8558883891
0	6056	494773.970054928252	2138.2416235283
0	6065	495529.030584264585	2148.326316895
0	6072	496203.96120585505	2189.6148190834
0	6079	496798.228409607002	2024.2583546788
0	6092	497711.593654006757	2182.5630697422
0	6099	498573.642361722924	2354.5823596884
0	6106	498894.88135334108	1856.8676949944
0	6119	500329.609762737565	2618.0161087308
0	6128	501218.157490342893	2607.7144165523
0	6133	501722.248418256678	2228.8976155221
0	6142	502276.891170674973	1947.2814079374
0	6155	503645.907293586098	2427.7498032432
0	6164	504395.37852052603	2445.1641584281
0	6173	505285.116062499621	2479.36598612
0	6182	506121.946026105472	2476.0387325194
0	6191	506945.053314557337	2549.6747940313
0	6198	507346.67498655621	2061.5589240566
0	6205	508038.688177987971	1916.7421518825
0	6218	509098.1348681264	2153.0815535691
0	6223	509448.646878032051	1802.4683103897
0	6232	509847.841314459257	1421.951838769
0	6245	510849.575150432102	1751.4402823057
0	6252	511259.666340798176	1439.1855034512
0	6263	512075.781701412088	1851.8719878048
0	6272	512841.605439037121	1992.030288605
0	6279	513290.964813530482	1703.9744126145
0	6288	513921.761465538329	1845.9797641262
0	6295	514543.292065244205	1701.6866262071
0	6304	515553.437955491281	2123.6291206442
0	6317	516598.978242790362	2393.32584925
0	6324	517122.780058113894	2056.9281856064
0	6331	518065.788102429396	2152.2174926475
0	6342	518861.946454178578	2262.9682113882
0	6351	519526.458095340094	2049.5230184868
0	6360	520183.506346447429	1972.4975771271
0	6371	521040.788029460272	2074.2981264833
0	6378	521881.659421417898	2171.5812527575
0	6387	522564.287779340556	2196.0985410959
0	6396	523275.759289227462	2234.9712597672
0	6403	523767.826731735876	1828.8043644279
0	6412	524227.768853260241	1558.5385459475
0	6421	524833.33478523422	1407.8408346511
0	6432	526137.837370717935	2284.2383093666
0	6439	526589.916344778649	1977.9664173257
0	6448	527510.549940587989	2053.6940161139
0	6459	528566.080916253887	2300.5330761429
0	6468	529218.534288927949	2154.1282082442
0	6475	529957.828973466567	2026.4002230484
0	6484	530912.021838733963	2231.9675546139
0	6495	531805.705863190851	2236.0993875191
0	6502	532343.292181240431	2046.9243773259
0	6515	533036.91915683452	1954.5817414764
0	6520	533408.640367258377	1484.8218037281
0	6533	534439.807731192596	1968.4181895107
0	6542	535224.343933817036	2187.4247769825
0	6549	535617.181479977481	1946.5879011434
0	6556	536439.077786263116	1999.2700550705
0	6565	536998.019993444942	1773.6760596279
0	6578	537826.306333160065	1706.5787614323
0	6583	538245.237134490199	1644.0751904156
0	6594	539238.459391286634	2166.3824544288
0	6603	540082.774770213329	2256.4684370533
0	6610	540752.291319659018	2069.8004957289
0	6621	541265.457792906128	1900.7373602595
0	6628	542002.460322249718	1752.3852383718
0	6639	543132.080340525172	2336.7510678247
0	6648	543715.84892836403	2064.3790704198
0	6655	544417.160622496194	2089.3018338829
0	6664	545009.280954301394	1789.8175321519
0	6675	545726.518219616301	1848.0944462121
0	6682	546468.22354844775	1831.2446543947
0	6693	547503.637233423106	2221.2599439081
0	6704	548314.201628509946	2219.0653075464
0	6713	549201.041754009239	2335.3790005669
0	6718	549639.484079880677	2042.914382508
0	6731	550841.909350035749	2527.7077215258
0	6740	551705.803069146387	2504.7613151371
0	6747	552275.010692328252	2233.2686116453
0	6758	552881.949821021445	2040.0404709857
0	6765	553454.199425596781	1748.3963564504
0	6772	553986.733645387031	1694.8778597172
0	6785	554990.88715589609	2108.9373348746
0	6794	555872.758219577409	2212.1022553649
0	6803	556662.352960137687	2331.5049028024
0	6808	557164.478192199058	2173.591036303
0	6817	557994.997743330933	2122.2395237535
0	6830	559000.677551329173	2338.3245911915
0	6835	559572.227985458486	2056.9459219929
0	6844	560037.102086143605	1653.8007804193
0	6857	561058.321126923002	2057.6435755938
0	6864	561841.270248871334	2146.8118265737
0	6871	562180.754381697662	1642.1005669981
0	6884	563525.336798792742	2467.0156718697
0	6893	564371.944106044285	2463.9093687292
0	6898	564709.966895263679	1987.6522778068
0	6911	565658.087471080981	2132.7506722882
0	6918	566244.462309172414	1872.5182031281
0	6925	566836.946386937089	2006.434755167
0	6934	567587.308263173365	1929.2207920924
0	6947	568728.845690935888	2337.0068995748
0	6954	569384.984261775427	2257.3078991845
0	6965	570309.692639624738	2323.1108207256
0	6972	570888.870004517996	2160.0243135821
0	6981	571793.415769189634	2319.0550225787
0	6992	572618.503929488399	2308.8112898637
0	6999	573005.872964719349	2016.7686481029
0	7006	573428.941873647311	1563.1216788199
0	7017	574665.335004637057	2046.8310751487
0	7026	575488.974677072877	2255.5397415999
0	7033	575981.540634110609	2094.4823961239
0	7042	576654.410536587277	1912.8754271194
0	7055	578169.757991284171	2576.8935884815
0	7062	578945.053528016472	2459.3636382837
0	7069	579566.808798629829	2293.3731527533
0	7080	580707.477104198227	2537.7191129141
0	7089	581240.478601120451	2240.3352594003
0	7096	581977.401446225161	2161.6183939856
0	7105	582606.416020542422	1890.8044222277
0	7116	583498.732345411592	2134.3312046025
0	7123	583969.908803282344	1793.5639063362
0	7136	584848.182734381447	1865.3453193605
0	7141	585331.84043993246	1726.3805655297
0	7154	586201.227626251097	1875.7999607362
0	7161	586583.637782558839	1735.4550481774
0	7168	587119.489931082393	1741.473457776
0	7179	587963.224531710187	1761.9969054591
0	7190	588906.7954518367	2215.741046844
0	7199	589689.453791873569	2471.4949198533
0	7204	590270.726744877214	2221.097752545
0	7215	591227.354637533466	2320.5591856968
0	7222	591782.282481249462	2092.8286893759
0	7233	592520.074280910234	1954.1650007945
0	7242	593324.597007455344	1886.7914818693
0	7251	594311.996928462799	2148.8664995413
0	7258	594866.95012296554	2055.3200416267
0	7269	595814.298915211152	2188.3416580036
0	7278	596798.166643688497	2377.0178887993
0	7287	597521.899905754295	2274.1749098059
0	7296	597996.344595914748	1881.5167455934
0	7303	598805.014365026769	1992.2920354642
0	7312	599680.787392286625	2143.0224980693
0	7321	600322.573990607675	1888.3999767713
0	7334	601368.762096483302	2174.2080748547
0	7339	601806.479441095185	1871.7801452614
0	7348	602588.557645026636	1960.9347094316
0	7353	602917.40547339436	1548.6433769111
0	7370	604240.147898532492	2082.0191035979
0	7379	604747.568407841069	1761.4289238118
1	3212	260394.986216817067	355
1	3221	261201.17836813444	356
1	3226	261559.057035902531	357
1	3239	262296.057981625216	358
1	3244	262769.265556242334	359
1	3253	263143.946735188382	360
1	3264	264316.313041839766	361
1	3271	264920.478626154381	362
1	3280	265578.812523605319	363
1	3293	266411.087825847807	364
1	3300	266967.944813473168	365
1	3311	267843.601144664007	366
1	3320	268725.651446823048	367
1	3329	269438.187936740013	368
1	3334	269781.713216425868	369
1	3347	270819.1933875438	370
1	3356	271674.337482126447	371
1	3365	272522.95452863911	372
1	3374	273327.623326890188	373
1	3383	274040.701172500866	374
1	3390	274775.872215488943	375
1	3401	275690.877036983164	376
1	3410	276571.201458200829	377
1	3419	277258.901897957565	378
1	3428	277965.217595547454	379
1	3435	278474.305219296382	380
1	3442	278859.094508690776	381
1	3455	280171.675686445104	382
1	3460	280661.31744123997	383
1	3469	281119.919687882083	384
1	3480	281825.678110029565	385
1	3491	282744.741343287768	386
1	3498	283539.258091896789	387
1	3505	284022.459156531857	388
1	3516	285099.614299088733	389
1	3523	285589.654027204977	390
1	3532	286105.410328460874	391
1	3545	287324.258668441343	392
1	3554	288206.366793578508	393
1	3563	288956.950699165481	394
1	3568	289336.473804060387	395
1	3577	290146.259018266591	396
1	3586	290543.307470809686	397
1	3595	291488.074230216461	398
1	3606	292843.252657866123	399
1	3613	293315.252694860118	400
1	3622	293690.375122334825	401
1	3631	294795.759253576415	402
1	3640	295404.437044775131	403
1	3653	296517.282572435233	404
1	3660	297000.087756011653	405
1	3669	297705.041790241393	406
1	3678	298426.79466018455	407
1	3685	298906.545124948042	408
1	3696	299738.691139407474	409
1	3703	300306.293002562616	410
1	3712	301099.80995832013	411
1	3721	302401.206850865875	412
1	3732	303128.25598376805	413
1	3743	303941.259716637452	414
1	3752	304823.224305734058	415
1	3761	305515.510124992599	416
1	3766	306005.678496323546	417
1	3775	306587.489892868345	418
1	3788	307585.089481528869	419
1	3793	308202.241366216934	420
1	3802	308792.664503585568	421
1	3811	309622.150957910365	422
1	3820	310320.277362735963	423
1	3831	311230.158125935143	424
1	3838	311774.450190458467	425
1	3847	312652.747398242377	426
1	3852	312984.697745880134	427
1	3867	314006.357129802949	428
1	3874	314647.344965441174	429
1	3883	315320.465147914387	430
1	3892	316519.875840190821	431
1	3903	317067.578446492576	432
1	3914	317849.374093953543	433
1	3919	318403.56707889589	434
1	3928	319078.814915847056	435
1	3939	319798.923784866952	436
1	3948	320681.831785803684	437
1	3955	320992.471966892504	438
1	3964	321667.591052083322	439
1	3975	322741.832982748771	440
1	3982	323436.77223999987	441
1	3995	324399.955194024394	442
1	4002	324838.915478764127	443
1	4011	325595.641154190551	444
1	4018	326008.042268827583	445
1	4027	326655.494886310796	446
1	4040	327549.9092451297	447
1	4049	328355.682442104469	448
1	4054	328668.810995807896	449
1	4063	329334.280334226812	450
1	4074	330365.120782842885	451
1	4085	331409.653907083001	452
1	4092	331797.287676483419	453
1	4101	332718.813385069397	454
1	4108	333628.655331535291	455
1	4117	334199.753358587649	456
1	4130	335467.087552836192	457
1	4135	336016.36873707178	458
1	4144	336735.511912917745	459
1	4153	337507.890730490935	460
1	4164	338506.275397120071	461
1	4171	339040.380101557848	462
1	4182	340207.096799835589	463
1	4193	340951.85947953726	464
1	4202	341539.791133208227	465
1	4211	342258.138637477559	466
1	4216	342560.764598893029	467
1	4227	343519.360504299429	468
1	4234	344417.700019944486	469
1	4243	345134.512657625627	470
1	4252	345930.656095175099	471
1	4265	347018.711619777632	472
1	4272	347689.660565648255	473
1	4281	348368.21847176182	474
1	4288	348754.062913963599	475
1	4301	349823.924727318837	476
1	4310	350518.743086373462	477
1	4319	351377.708199620275	478
1	4328	352258.93244887705	479
1	4337	352884.343047486647	480
1	4346	353531.704628141626	481
1	4355	354410.837805178046	482
1	4360	354786.173709807947	483
1	4373	355674.141963757604	484
1	4382	356509.104474820226	485
1	4391	357266.33793208751	486
1	4398	357812.246680911659	487
1	4405	358274.529324844509	488
1	4416	359131.444024248078	489
1	4427	360107.344330614462	490
1	4434	360549.845458427473	491
1	4441	361662.537583848491	492
1	4454	362587.768689589605	493
1	4463	363428.116613952473	494
1	4472	363958.757806755632	495
1	4481	364835.143281659141	496
1	4488	365402.960277115956	497
1	4499	366287.619921611652	498
1	4508	366885.15408737588	499
1	4517	367736.580698657811	500
1	4526	368527.410075673864	501
1	4531	368941.879634605751	502
1	4540	369298.816495249078	503
1	4551	370562.684065941752	504
1	4562	371434.090928267718	505
1	4569	372234.823511028693	506
1	4580	372979.352720081837	507
1	4589	373819.464957201884	508
1	4596	374275.374714424864	509
1	4603	375049.306303588704	510
1	4612	375587.035172525824	511
1	4623	376764.172998955504	512
1	4634	377574.185615871132	513
1	4643	378170.381504483551	514
1	4652	378836.164910299734	515
1	4657	379217.286571534381	516
1	4666	379958.470365498245	517
1	4675	380836.172046186434	518
1	4684	381814.837805321471	519
1	4695	382857.90850580673	520
1	4704	383559.916002256826	521
1	4715	384341.210065735534	522
1	4722	385102.02683522369	523
1	4729	385901.907399343357	524
1	4738	386462.841453915492	525
1	4749	387358.987807435945	526
1	4760	388314.092233590812	527
1	4769	389076.900346437499	528
1	4774	389397.794309584454	529
1	4785	390465.469415159926	530
1	4792	390858.947288570956	531
1	4801	391234.656530153037	532
1	4814	392120.841394783959	533
1	4819	392462.241336749897	534
1	4828	393199.878561124236	535
1	4837	394012.274515908242	536
1	4846	395260.430214973198	537
1	4855	395931.112517556207	538
1	4866	396708.583618747101	539
1	4873	397289.978611283035	540
1	4884	398286.270349659056	541
1	4895	399190.382139338212	542
1	4902	400020.203544711726	543
1	4909	400441.060390882226	544
1	4918	400927.371931728008	545
1	4927	402085.97671967003	546
1	4938	403021.661284379693	547
1	4949	403896.670167613807	548
1	4956	404535.611718194592	549
1	4963	405232.751251850309	550
1	4972	405674.244821956414	551
1	4985	406702.545973146366	552
1	4990	407169.839938357504	553
1	4999	407697.348684724452	554
1	5008	408297.554995073038	555
1	5021	409215.434955619308	556
1	5026	409682.082726806435	557
1	5037	410618.782781995866	558
1	5046	411201.777242962304	559
1	5053	411738.107702834565	560
1	5064	412548.884249478611	561
1	5075	413291.485946020144	562
1	5084	414140.316475275937	563
1	5089	414635.725632123682	564
1	5098	415177.949652588028	565
1	5107	416043.849466647986	566
1	5116	416452.457188675214	567
1	5127	417557.902100170065	568
1	5136	418233.225052803789	569
1	5143	418798.557328060304	570
1	5152	419377.223762311076	571
1	5161	419831.329738581588	572
1	5172	420937.186717707698	573
1	5181	421692.299489770119	574
1	5188	422034.878951450844	575
1	5199	422932.790920324658	576
1	5206	423446.564021380653	577
1	5219	424817.649243772065	578
1	5228	425641.02414543744	579
1	5235	426221.738009713626	580
1	5242	426617.343129962719	581
1	5253	427648.228603089263	582
1	5262	428208.244985248929	583
1	5269	429040.953879850021	584
1	5278	429736.110901879182	585
1	5289	430478.66913308393	586
1	5300	431265.804826375132	587
1	5305	432013.612640043756	588
1	5316	432703.697747597506	589
1	5327	433591.422848543187	590
1	5336	434434.010012727266	591
1	5343	435119.261645246332	592
1	5350	435528.482903027942	593
1	5359	436115.347074111959	594
1	5372	436990.980315674133	595
1	5379	437341.274736402593	596
1	5390	438420.355400908775	597
1	5395	438774.077063519544	598
1	5408	439615.174203878305	599
1	5417	440403.778342204205	600
1	5422	440737.390671763606	601
1	5433	441980.927135422863	602
1	5442	442820.030970638655	603
1	5449	443138.965394720472	604
1	5462	444249.097238481082	605
1	5469	444904.52968929898	606
1	5476	445564.180421875827	607
1	5487	446265.762463538013	608
1	5498	447348.718422604762	609
1	5505	448060.083338990845	610
1	5514	448864.800476934798	611
1	5525	449857.91495949965	612
1	5534	450380.656050005965	613
1	5541	450914.898199634664	614
1	5548	451360.869565140493	615
1	5557	452394.201324787028	616
1	5568	452952.02691745948	617
1	5571	453314.851842261888	618
1	5584	454457.31906238947	619
1	5595	455258.458358142562	620
1	5604	455824.165647709779	621
1	5613	456458.494866779111	622
1	5622	457232.196586160027	623
1	5631	457702.484039682933	624
1	5638	458150.531557481774	625
1	5647	459283.528400911055	626
1	5656	460094.879957707636	627
1	5667	460828.506717318707	628
1	5674	461589.950358867683	629
1	5685	462664.011412952133	630
1	5694	463240.843787323721	631
1	5701	464080.102559924163	632
1	5712	465020.105988672042	633
1	5719	465715.990823088252	634
1	5730	466579.669234715441	635
1	5737	467059.506894880944	636
1	5750	468212.720726430454	637
1	5757	468960.296663269439	638
1	5764	469431.409065937662	639
1	5773	470485.221714153923	640
1	5784	471397.611539578102	641
1	5795	472181.393965613134	642
1	5804	473002.371178334616	643
1	5809	473460.793011216484	644
1	5818	474080.511159310155	645
1	5827	474726.299322629385	646
1	5840	476196.308264136351	647
1	5849	477040.74554792609	648
1	5858	477937.918153451792	649
1	5865	478751.948234578631	650
1	5874	479245.54806067612	651
1	5881	479879.722739942408	652
1	5894	480956.610055407546	653
1	5899	481321.940712863616	654
1	5910	482158.856151904948	655
1	5921	483238.111444842108	656
1	5930	484125.721656577699	657
1	5937	484731.370866671242	658
1	5948	485885.262693604492	659
1	5955	486669.21477159489	660
1	5962	487027.485223626755	661
1	5971	487963.071029260792	662
1	5982	488865.178178530224	663
1	5993	489856.441346090325	664
1	6000	490309.646656271108	665
1	6007	490989.290103362911	666
1	6016	491664.235110254996	667
1	6025	492413.926796894559	668
1	6036	493328.409206075632	669
1	6045	493984.83984991912	670
1	6056	494773.970054928252	671
1	6065	495529.030584264585	672
1	6072	496203.96120585505	673
1	6079	496798.228409607002	674
1	6092	497711.593654006757	675
1	6099	498573.642361722924	676
1	6106	498894.88135334108	677
1	6119	500329.609762737565	678
1	6128	501218.157490342893	679
1	6133	501722.248418256678	680
1	6142	502276.891170674973	681
1	6155	503645.907293586098	682
1	6164	504395.37852052603	683
1	6173	505285.116062499621	684
1	6182	506121.946026105472	685
1	6191	506945.053314557337	686
1	6198	507346.67498655621	687
1	6205	508038.688177987971	688
1	6218	509098.1348681264	689
1	6223	509448.646878032051	690
1	6232	509847.841314459257	691
1	6245	510849.575150432102	692
1	6252	511259.666340798176	693
1	6263	512075.781701412088	694
1	6272	512841.605439037121	695
1	6279	513290.964813530482	696
1	6288	513921.761465538329	697
1	6295	514543.292065244205	698
1	6304	515553.437955491281	699
1	6317	516598.978242790362	700
1	6324	517122.780058113894	701
1	6331	518065.788102429396	702
1	6342	518861.946454178578	703
1	6351	519526.458095340094	704
1	6360	520183.506346447429	705
1	6371	521040.788029460272	706
1	6378	521881.659421417898	707
1	6387	522564.287779340556	708
1	6396	523275.759289227462	709
1	6403	523767.826731735876	710
1	6412	524227.768853260241	711
1	6421	524833.33478523422	712
1	6432	526137.837370717935	713
1	6439	526589.916344778649	714
1	6448	527510.549940587989	715
1	6459	528566.080916253887	716
1	6468	529218.534288927949	717
1	6475	529957.828973466567	718
1	6484	530912.021838733963	719
1	6495	531805.705863190851	720
1	6502	532343.292181240431	721
1	6515	533036.91915683452	722
1	6520	533408.640367258377	723
1	6533	534439.807731192596	724
1	6542	535224.343933817036	725
1	6549	535617.181479977481	726
1	6556	536439.077786263116	727
1	6565	536998.019993444942	728
1	6578	537826.306333160065	729
1	6583	538245.237134490199	730
1	6594	539238.459391286634	731
1	6603	540082.774770213329	732
1	6610	540752.291319659018	733
1	6621	541265.457792906128	734
1	6628	542002.460322249718	735
1	6639	543132.080340525172	736
1	6648	543715.84892836403	737
1	6655	544417.160622496194	738
1	6664	545009.280954301394	739
1	6675	545726.518219616301	740
1	6682	546468.22354844775	741
1	6693	547503.637233423106	742
1	6704	548314.201628509946	743
1	6713	549201.041754009239	744
1	6718	549639.484079880677	745
1	6731	550841.909350035749	746
1	6740	551705.803069146387	747
1	6747	552275.010692328252	748
1	6758	552881.949821021445	749
1	6765	553454.199425596781	750
1	6772	553986.733645387031	751
1	6785	554990.88715589609	752
1	6794	555872.758219577409	753
1	6803	556662.352960137687	754
1	6808	557164.478192199058	755
1	6817	557994.997743330933	756
1	6830	559000.677551329173	757
1	6835	559572.227985458486	758
1	6844	560037.102086143605	759
1	6857	561058.321126923002	760
1	6864	561841.270248871334	761
1	6871	562180.754381697662	762
1	6884	563525.336798792742	763
1	6893	564371.944106044285	764
1	6898	564709.966895263679	765
1	6911	565658.087471080981	766
1	6918	566244.462309172414	767
1	6925	566836.946386937089	768
1	6934	567587.308263173365	769
1	6947	568728.845690935888	770
1	6954	569384.984261775427	771
1	6965	570309.692639624738	772
1	6972	570888.870004517996	773
1	6981	571793.415769189634	774
1	6992	572618.503929488399	775
1	6999	573005.872964719349	776
1	7006	573428.941873647311	777
1	7017	574665.335004637057	778
1	7026	575488.974677072877	779
1	7033	575981.540634110609	780
1	7042	576654.410536587277	781
1	7055	578169.757991284171	782
1	7062	578945.053528016472	783
1	7069	579566.808798629829	784
1	7080	580707.477104198227	785
1	7089	581240.478601120451	786
1	7096	581977.401446225161	787
1	7105	582606.416020542422	788
1	7116	583498.732345411592	789
1	7123	583969.908803282344	790
1	7136	584848.182734381447	791
1	7141	585331.84043993246	792
1	7154	586201.227626251097	793
1	7161	586583.637782558839	794
1	7168	587119.489931082393	795
1	7179	587963.224531710187	796
1	7190	588906.7954518367	797
1	7199	589689.453791873569	798
1	7204	590270.726744877214	799
1	7215	591227.354637533466	800
1	7222	591782.282481249462	801
1	7233	592520.074280910234	802
1	7242	593324.597007455344	803
1	7251	594311.996928462799	804
1	7258	594866.95012296554	805
1	7269	595814.298915211152	806
1	7278	596798.166643688497	807
1	7287	597521.899905754295	808
1	7296	597996.344595914748	809
1	7303	598805.014365026769	810
1	7312	599680.787392286625	811
1	7321	600322.573990607675	812
1	7334	601368.762096483302	813
1	7339	601806.479441095185	814
1	7348	602588.557645026636	815
1	7353	602917.40547339436	816
1	7370	604240.147898532492	817
1	7379	604747.568407841069	818

