version 2
run Pipelined_3Teachers-94-20190105-10:57:39-23164
attr configname Pipelined_3Teachers
attr datetime 20190105-10:57:39
attr experiment Pipelined_3Teachers
attr inifile ../simulations/omnetpp.ini
attr iterationvars "$0=\"uniform\""
attr iterationvarsf uniform-
attr measurement "$0=\"uniform\""
attr network PipelinedExamSession
attr processid 23164
attr repetition 94
attr replication #94
attr resultdir results
attr runnumber 94
attr seedset 94
param **.teachersNumber 3
param **.answerTimeDistribution "\"uniform\""
param **.minUniform 300
param **.maxUniform 900
param **.scaleLognormal 6.2854
param **.shapeLognormal 0.4724

vector 0 PipelinedExamSession examinationTime:vector ETV
attr source examFinished
vector 1 PipelinedExamSession studentID:vector ETV
attr source student
0	3145	260186.750423954824	2012.0519421995
0	3156	261332.540963776433	2287.1551391669
0	3165	262099.718861980388	2183.6151698604
0	3176	262985.878893127689	2252.8153108433
0	3185	263472.030594013655	2091.6062406264
0	3194	264096.389979030961	1889.9574422278
0	3199	264468.782876338834	1482.9039832111
0	3212	265085.521079320485	1613.4904853068
0	3219	265838.579828711251	1742.1898496803
0	3228	266513.373433146651	1905.8869066648
0	3235	267070.826700003843	1985.3056206834
0	3244	268003.914351342271	2154.3219010346
0	3253	268691.742407251174	2122.9511519428
0	3262	269608.25291667136	2165.9790073056
0	3273	270303.747698105896	2108.7652780116
0	3280	271100.277631357337	2078.6927401554
0	3291	272063.515650574143	2143.3810909744
0	3302	272994.379353197316	2224.0418478381
0	3309	273540.628506615782	1923.3351486269
0	3320	274466.097401641334	2326.6214893665
0	3325	274788.222934165994	1793.8435809687
0	3336	275907.909274846341	2268.7710394152
0	3343	276440.720368595819	1974.6229669545
0	3354	277026.991877937715	1735.517858807
0	3361	277467.28278980593	1398.8951808773
0	3374	278464.37144153754	1879.1686963756
0	3381	278953.775504557442	1810.9551295638
0	3388	279390.804693941053	1790.8163235057
0	3401	280411.078484589259	1946.7070430517
0	3410	281279.954301752175	2165.5840060674
0	3415	281585.326922033007	1694.4992328063
0	3420	281927.666048426206	1516.5875638369
0	3435	282973.972661979521	1694.0183602273
0	3442	283813.292728364493	1815.4076479375
0	3451	284353.325626440371	1764.293713728
0	3462	286072.724276734541	2613.7836269103
0	3469	286618.63847561183	2279.535566736
0	3478	287048.012395435968	1820.5867623445
0	3489	287860.994318174222	1771.4653002564
0	3496	288468.340215319791	1660.970702162
0	3509	289391.883608233207	1939.7941406351
0	3514	289693.382268911251	1552.1561443806
0	3527	290873.028359469049	2000.3908690531
0	3536	291396.235557412751	2004.3519491795
0	3543	291917.843535589077	1726.2660015374
0	3550	292278.249155217804	1405.2207957488
0	3559	293423.123677074931	2026.8881196622
0	3570	294093.155430955835	1944.4732274394
0	3581	295117.949353158496	2296.7409895733
0	3588	295796.070158807583	2162.3346348759
0	3595	296258.937749778874	1990.4805110302
0	3606	297315.423069940902	2197.4737167824
0	3617	298191.274807183094	2352.390058944
0	3626	298977.419268339894	2294.904531911
0	3635	299779.079659050352	2375.5139423534
0	3640	300097.434884123526	1906.1600769404
0	3651	301223.602275503821	2246.1830071639
0	3662	302055.742882238723	2276.6632231884
0	3669	302468.429937399946	1820.1743520331
0	3676	302965.961533784889	1661.2163659651
0	3685	303852.222529565938	1796.4796473272
0	3696	304679.778364067919	2066.3612068165
0	3705	305322.881880635418	1816.3561137859
0	3714	305877.599522564583	1833.6212108843
0	3721	306331.896229600557	1457.9168003518
0	3734	307549.375628493749	2179.740632046
0	3743	308392.706683930032	2496.742725838
0	3752	309270.394972991221	2516.7012148071
0	3757	309595.874713081889	2046.4990845881
0	3766	310320.813651289813	1928.1069673598
0	3779	311329.141707764961	2058.7467347737
0	3784	311704.977586772315	1907.5285384431
0	3793	312272.986856661759	1643.6271303333
0	3802	313174.688200000696	1845.5464922357
0	3815	314147.791108768456	2021.4554825798
0	3820	314452.182120317616	1602.1632154472
0	3829	315113.37082735265	1512.016940536
0	3838	315797.067644912772	1649.2765361443
0	3847	316429.121358180441	1648.4707312658
0	3856	317238.837437750794	1615.1437862311
0	3865	317815.764322830386	1474.7633151244
0	3874	318629.666306125023	1723.6988841556
0	3885	320019.627455715113	2287.0632593986
0	3896	320867.125035915547	2349.5632083155
0	3901	321538.783935550624	2121.6868769377
0	3914	322280.3728069179	2170.1348728035
0	3921	322955.889820167819	2088.7647842523
0	3928	323595.172498701165	1876.919470774
0	3937	324302.077490463878	2021.704683546
0	3946	325061.921859718884	1970.1001851819
0	3955	325923.760901810627	2008.8500188664
0	3964	326344.80675864036	1578.1280038878
0	3973	327259.442825708563	1772.1385451965
0	3986	328122.196244029353	2100.4451598041
0	3995	328930.413980735491	2187.5517843291
0	4000	329317.508864309664	1794.5384241175
0	4011	329970.46553897674	1848.2692949474
0	4018	330350.982404965933	1420.5684242304
0	4027	331125.361495139103	1514.4258398563
0	4040	331963.974203215938	1848.3266823459
0	4049	332851.880804356214	2032.5651977677
0	4054	333419.752057269242	2130.6468567811
0	4063	334271.813624398809	2307.8394211829
0	4076	335014.985276525867	2163.1044721697
0	4085	335737.825416354489	2259.2919174582
0	4090	336320.709205186021	2021.5681082569
0	4099	336743.286629905951	1728.3013533801
0	4110	337877.657662611482	2139.832246257
0	4119	338783.241862943424	2166.9592740946
0	4128	339648.636041069431	2464.0250254422
0	4135	340142.521774722291	2091.3576924708
0	4144	341044.199175993009	2213.9404925052
0	4155	341790.263784024892	2141.3971872535
0	4166	342394.772626273362	1958.4141370375
0	4173	342996.912424033536	1675.6701953709
0	4180	343456.075632199673	1632.8620644752
0	4189	344200.942256860464	1806.1696305871
0	4202	345146.532934019371	2096.9321470242
0	4209	345629.93843355219	1935.0105207413
0	4218	346205.673303455143	1872.1334665082
0	4225	346654.410995263636	1507.8780612443
0	4234	347407.76747628118	1520.0728561264
0	4243	348445.833841385349	2184.2913547531
0	4252	349062.772399233684	1956.8699665368
0	4265	349900.002381205588	2111.6193407681
0	4274	350701.841833395913	2199.4017987046
0	4281	351481.739558139846	2308.9287942275
0	4290	352012.546702288121	2112.5443210825
0	4299	353260.575239080966	2558.7334056851
0	4306	353701.34687460962	2126.2027038261
0	4315	354553.27860689725	2084.9931943696
0	4326	355575.695956824378	2281.0821480118
0	4335	356119.0267751925	2119.5568513591
0	4344	356934.416330605776	2147.0897954889
0	4351	357301.039462303773	1627.7632171288
0	4362	358446.028383728147	2172.7144346572
0	4369	358939.066809229583	1922.3402519245
0	4382	359850.650260923461	2103.6935512908
0	4387	360172.887518489764	1724.3769721594
0	4396	361040.106355492056	2042.016708618
0	4405	361584.688336076246	1734.0380751528
0	4414	362469.050942407952	1829.6632971615
0	4423	363375.803892966392	1965.4021013528
0	4432	363902.995361527459	1840.2871030848
0	4441	364573.165431898119	1911.4750770852
0	4450	365115.369524527373	1587.9037827719
0	4461	366347.670182911711	2209.8079569172
0	4468	366816.907484969156	1884.2860727571
0	4477	367966.192291863295	2217.2891157679
0	4490	369055.084631312671	2418.0752982851
0	4497	369800.013432931188	2292.7433007862
0	4508	370593.874772451851	2312.7265163697
0	4515	371291.271474910933	2236.1868435983
0	4522	371961.414905497837	2117.5776878838
0	4531	372435.145796835456	1841.2710243836
0	4540	372988.126064837012	1579.578198446
0	4553	374389.762675948474	2158.2824317273
0	4562	375283.833819022435	2326.8657923676
0	4571	376036.75651168454	2310.4509982746
0	4580	376577.325864974442	2187.563189026
0	4585	376937.998385494608	1654.1645664722
0	4598	378033.283881191197	1996.5273695067
0	4607	378735.516212834078	2158.1903478596
0	4614	379438.037092052433	2149.8360366561
0	4625	380123.156096180933	2089.8722149897
0	4632	380695.868131890925	1960.3519190568
0	4643	381421.213356731491	1928.6175106186
0	4648	381968.902172707053	1845.7460765261
0	4659	382864.501151908221	2144.7164625395
0	4666	383286.986421374636	1865.7730646431
0	4675	383822.147930692914	1550.3371656407
0	4684	384873.533177934619	1844.6980839595
0	4693	385635.78304150145	1969.2636423279
0	4702	386279.215603228691	1736.0190199222
0	4711	386635.106957936691	1454.6555079985
0	4722	387645.147497300091	1678.0610274989
0	4729	388139.883830398354	1795.4713978339
0	4738	388646.539876749771	1678.4087209962
0	4749	389859.95367150757	2128.8005505223
0	4756	390233.122828183728	1617.186955316
0	4765	391016.364652058142	1683.482513018
0	4776	391492.385436175424	1438.7380806729
0	4787	392781.133538112078	2294.5150868967
0	4796	393592.262229044024	2448.8958659582
0	4805	394115.34241153862	2232.7850673348
0	4814	394803.762099612538	2022.6285615005
0	4823	395453.072248259593	1860.8100192156
0	4828	395827.943746559356	1712.6013350207
0	4841	396836.788246454705	2033.0261468422
0	4846	397397.75029770102	1944.6780494414
0	4855	398308.944459166412	2061.6016889457
0	4866	399324.14217833433	2487.3539318796
0	4873	399837.868280941655	2107.6693318784
0	4882	400383.449520589819	1783.0121671781
0	4893	400999.326899182086	1586.0331280623
0	4900	401764.26757187586	1672.3596621305
0	4909	402466.846706857939	1842.8463671822
0	4922	403579.516281746363	2088.7145969085
0	4931	404318.100070115214	2188.9404544607
0	4936	404628.454642044416	1650.9914685041
0	4945	405042.730332724785	1463.2140509784
0	4954	406147.364281676745	1829.2642115615
0	4967	407252.593680471217	2343.1851456407
0	4976	407975.40373303931	2273.1721355114
0	4983	408666.446268791368	2207.3988930322
0	4990	409318.255103845185	2065.661423374
0	5001	410207.574284356122	2232.1705513168
0	5008	410730.218682484736	1860.7865808997
0	5021	411762.499009212514	2026.6837546136
0	5028	412482.227702066337	2240.806614887
0	5037	413317.140683066135	2180.9075856116
0	5046	414006.261715013569	2243.7627058011
0	5057	414776.506243133954	2265.2902409434
0	5066	415669.113229494578	2307.7156017534
0	5075	416461.053071217648	2326.5669191256
0	5082	417191.542873531617	2415.0366303977
0	5093	417975.693951314352	2306.5807218198
0	5102	418770.158434845544	2309.1053636279
0	5107	419161.221659090407	1899.3507283274
0	5120	420407.695674849711	2432.0017235354
0	5129	421100.882537104226	2330.7241022587
0	5134	421533.536326652429	1892.5787199754
0	5143	422672.003643773533	2264.3079689238
0	5154	423297.136373072899	2196.2538359687
0	5163	424134.304987220131	2199.6930912137
0	5170	424452.119004540183	1652.7969961055
0	5179	425155.315733654462	1684.2514920048
0	5188	426066.467158310153	1703.2640231308
0	5199	426859.416638687291	2145.7621869631
0	5208	427564.662842452564	2139.1577610746
0	5219	428288.618196453936	2055.6627527811
0	5228	429039.773709001057	2177.6281492319
0	5235	429527.555941371285	1860.0589534733
0	5242	429901.555083878376	1612.9368874244
0	5251	431151.11614144411	2111.3424324431
0	5260	431711.018433328756	1881.8591503892
0	5273	432702.028651675248	2007.0333145559
0	5280	433004.759384365791	1630.9834448621
0	5287	433732.861943403298	1582.1046268567
0	5300	434704.079998657147	2002.0513469819
0	5309	435184.673388535197	1987.5700397417
0	5314	435794.643715303431	1900.2850152086
0	5325	436348.972596600692	1644.8925979435
0	5334	437210.213246243114	2025.5398577079
0	5341	437587.913821404839	1724.0634572692
0	5350	438431.123995268757	1967.4398888368
0	5361	439093.166716536547	1850.2452042885
0	5372	439953.581295814405	2174.1831243038
0	5381	440539.892841596196	1940.6550242566
0	5388	441293.016881961415	1802.6813544799
0	5395	441861.333624087313	1907.7523282729
0	5404	442686.657100031192	2146.764258435
0	5413	443254.763745982239	1869.8003947735
0	5422	443868.59221891504	1597.6715189405
0	5435	444900.155438622498	2009.3792773783
0	5440	445207.522474369072	1741.1774176173
0	5449	445816.194587387183	1540.8687138464
0	5460	446765.326963830777	1865.1715252083
0	5467	447338.952394668051	1739.5974995568
0	5480	448403.808557661288	2327.5157222059
0	5487	448862.002120865547	2028.922307957
0	5494	449370.936370734163	1808.9304860216
0	5507	450307.438457803838	1903.6299001426
0	5516	450885.361451748796	1788.5852711275
0	5525	451769.911041157358	1954.173046723
0	5532	452330.047142459118	2022.6086846553
0	5541	453101.443747244814	2216.082295496
0	5548	453618.570375815073	1848.6593346577
0	5557	454613.913123635615	2013.3408239577
0	5566	455128.129347693215	1627.7217950206
0	5575	455787.480690982233	1717.6529986784
0	5584	456702.287054015363	1993.5973586049
0	5595	457557.04880892303	2014.8291247431
0	5602	458116.747674671972	1999.2394066416
0	5611	458792.024613870348	1926.5195831191
0	5620	459498.427959345321	1762.0033178944
0	5629	460799.308321857866	2244.400516944
0	5642	461829.380028136114	2529.142550379
0	5651	462392.993733147199	2199.4667189196
0	5660	463227.30402876627	2247.256268654
0	5667	463661.990675702731	1832.6106475666
0	5676	464328.692158777307	1935.6984256301
0	5683	464779.682002170052	1552.3779734038
0	5692	465645.59674859051	1673.6073834356
0	5703	466032.170850550797	1332.8315445688
0	5710	466681.19988818657	1381.4950698987
0	5721	467637.35032347035	1912.9527517129
0	5730	468502.714966703247	2121.853291383
0	5741	469275.683658896055	2270.0065404642
0	5748	469766.013492923271	2014.234083239
0	5755	470512.224375782575	1892.7429371048
0	5768	471479.300292301964	2203.6166334059
0	5773	472106.206812523346	2303.8256369065
0	5786	472874.025270436	2213.765667798
0	5793	473667.678003525402	2188.3777112234
0	5800	474072.571686375927	1845.4957361799
0	5811	474818.961663404521	1944.9363929685
0	5820	475862.75634658527	2132.4615729041
0	5827	476219.983890373301	1826.6559217125
0	5836	477314.862253982615	2190.3446302749
0	5849	478254.512974899304	2358.420321811
0	5854	478591.759684961331	1913.6327419896
0	5863	479116.593309631613	1572.3178717308
0	5872	479991.684353118804	1737.1713782195
0	5885	480754.535122308922	2007.9636849929
0	5890	481170.384590746877	1665.1562035549
0	5895	481638.44268685211	1501.2841909658
0	5908	482697.143520042342	1942.6083977334
0	5917	483476.465922128451	1822.6846619043
0	5928	484576.942984946114	2325.3122190479
0	5937	485245.311024645385	2173.1058010831
0	5944	485909.027665760411	1942.6908471622
0	5953	486468.90456969854	1639.2523545306
0	5962	487047.249314608095	1532.6518493705
0	5973	488531.595005700408	2386.5345442202
0	5980	488965.686531644358	1953.733857628
0	5993	489941.929836245296	2123.28675678
0	6000	490456.972401402933	1883.0779605545
0	6009	491612.318399129478	2469.6991568897
0	6016	492135.191376088229	2193.2615398429
0	6025	492635.052672866774	1806.3946823124
0	6036	493311.326585104731	1629.5598434284
0	6047	494171.217940421817	1829.4933881611
0	6052	494585.047863191036	1779.1167219635
0	6061	495209.221618389753	1882.6275659725
0	6074	496556.901946105105	2385.6840056833
0	6083	497334.301323629958	2273.256174149
0	6088	497734.477974660737	2033.5646023974
0	6101	498528.735033609015	1971.8330875039
0	6108	499198.517979634968	1864.216656005
0	6119	499981.132021034178	2073.5431500245
0	6124	500309.250204870519	1780.5151712615
0	6133	501099.628454865929	1846.2540078443
0	6142	501854.662138782483	1873.5301177483
0	6155	502787.195759033826	2093.8919069711
0	6164	503564.999439613935	2047.7530518081
0	6173	504191.971471393522	2302.2297052201
0	6180	504723.502132063773	1936.3063730299
0	6189	505750.165732065257	2185.1662924513
0	6198	506406.085115578067	2214.1136441845
0	6205	506963.338522659656	1878.0789493583
0	6214	507765.402319422034	1792.3605049029
0	6227	508706.281568761957	2096.8675662763
0	6232	509059.049829561305	1743.8410499599
0	6241	509435.680912993891	1346.0492495913
0	6250	510074.203799665016	1367.9222309031
0	6259	510997.137044649614	1752.6320474222
0	6270	512236.444337619512	2452.933464339
0	6279	512830.122192855968	2192.4430847168
0	6288	513987.390845641536	2491.4861148689
0	6297	514692.196457460565	2336.0629647039
0	6308	515491.504763905001	2253.2773541752
0	6317	516389.426345424769	2324.2572302464
0	6324	516947.053419565824	2115.9161147196
0	6335	517967.110523488415	2475.6057595834
0	6344	518844.456161744935	2455.0298163202
0	6353	519669.754576915918	2516.4215890691
0	6360	520039.264394156678	2072.1538706683
0	6367	520818.466594722165	1974.0104329772
0	6378	521526.601477526172	1856.8469006103
0	6385	522239.023100724488	1991.3977297023
0	6394	523142.894714372277	2017.0455525164
0	6403	523889.340697042688	2086.5186642855
0	6412	524411.708536371633	1729.0814005304
0	6421	525326.534727634906	2128.1252678018
0	6430	525874.451319873378	1906.3469958957
0	6443	527104.386065946937	2429.9846991431
0	6450	527870.50475981091	2325.3596134018
0	6461	528455.27337645185	2197.348311916
0	6466	528911.910820892125	1807.5247549452
0	6475	529714.577685948506	1773.3424876817
0	6486	530555.568158207506	2100.2947817557
0	6497	531377.066657552541	2165.5396055896
0	6504	532080.654847808228	2027.6160816662
0	6511	532945.746599743189	2206.9159809966
0	6520	533772.719355812343	2395.6526982598
0	6531	534611.894983146386	2362.2146509588
0	6542	535328.127892082604	2193.1364175864
0	6549	535683.985467860522	1811.9665411301
0	6558	536562.358047114732	1864.8602897767
0	6567	537407.229748042348	2079.1018559597
0	6578	538108.78145531756	2238.5571790393
0	6583	538495.772348949734	1758.1715099048
0	6596	539741.007036902059	2283.5718479007
0	6603	540223.662686627407	2114.8812313098
0	6610	540690.523557364989	1739.8160273675
0	6619	541609.758265363101	1868.751228461
0	6632	542322.840087069247	1945.438481681
0	6637	542757.526992866818	1626.7843835056
0	6646	543559.125228552196	1760.2618408855
0	6657	544345.407465007205	2022.567377938
0	6664	544901.583117060412	1698.7493970897
0	6677	545987.986264424447	2224.9515297823
0	6684	546795.573450252462	2250.357253477
0	6691	547429.794935602744	2024.4937858544
0	6700	547936.01666484033	1948.0304004159
0	6709	548637.235625647058	1770.1077341102
0	6722	549992.564504826491	2332.0466387551
0	6727	550388.521760143389	1866.6910896543
0	6736	551024.598397733693	1628.5073393024
0	6747	551985.627027321656	1993.0625224952
0	6756	552825.984704168563	2116.1786293611
0	6763	553168.957627611284	1584.5462851692
0	6772	554253.761391621133	2110.9777580481
0	6781	554997.517970111271	2020.775289461
0	6792	556057.136345235681	2225.3664039541
0	6799	556674.136012466675	2012.7126718406
0	6808	557564.056390989622	2045.9124822635
0	6817	558209.654626529713	1831.5864808392
0	6826	559137.168720457753	2128.5990411881
0	6835	559926.442158222249	2038.3333634119
0	6844	560395.984259527227	1610.4567260016
0	6853	561100.091446470519	1747.793921968
0	6864	562224.255432095429	2044.5000307169
0	6875	563296.163480356386	2222.4741526879
0	6884	563694.909540424174	1951.5957380645
0	6893	564544.491787813655	2124.905074155
0	6900	565145.68115961743	1849.517679261
0	6907	565943.339428352243	2248.4298879281
0	6916	566410.589753603614	1866.09796579
0	6929	567683.481349702976	2255.7480520103
0	6936	568505.509895458869	2305.834618723
0	6943	569061.815733136661	2178.5384433344
0	6956	570118.497991422243	2435.0166417193
0	6965	570978.348183631949	2468.2912210934
0	6972	571739.723775722139	2448.9247040357
0	6979	572045.370724797301	1926.8727333751
0	6990	573031.522523844667	2053.1743402127
0	6997	574056.652807351254	2279.8752942123
0	7008	574682.386684371211	2154.3151393533
0	7017	575177.653661370331	1819.3734979257
0	7024	575875.277273682931	1624.0227716044
0	7037	576985.704973340088	2269.5731612854
0	7044	577594.607749627957	2042.0093353372
0	7051	578084.887833846787	1754.674920626
0	7056	578570.847629662657	1585.1426563226
0	7069	579748.601640528121	1929.7484192066
0	7080	580700.133492518269	2069.5137934294
0	7087	581549.551114300319	2125.111482013
0	7098	582291.703588608706	2162.3901807703
0	7109	583092.191834701279	2112.0628022589
0	7118	583843.793395813608	1981.2839421909
0	7123	584258.538043918142	1709.8165753763
0	7136	585371.886017778942	2279.6941830777
0	7141	585867.588529363328	2023.7951335497
0	7152	586800.028299260938	2067.9127874784
0	7159	587221.056345943415	1849.1703281645
0	7170	588117.273551551678	1860.6767856516
0	7177	588760.671656532266	1925.6667610724
0	7188	589480.650731921249	1770.2993185725
0	7195	590076.554546970927	1716.5608358569
0	7208	591476.254885224679	2366.5398001671
0	7213	591848.014751030186	1956.6312780138
0	7222	592859.015650302225	2131.8600250874
0	7235	593983.31540403893	2507.0605188143
0	7242	594670.465951971763	2318.3734648861
0	7249	595048.007437214309	1810.144907143
0	7260	596068.239327147657	2084.9239231087
0	7269	596670.530463801751	1938.5008082259
0	7276	597174.497576896155	1853.1815179624
0	7285	598097.670708177665	1972.8831842076
0	7294	598872.630794579218	2046.6209679376
0	7303	599602.415400138179	2119.4155731238
0	7316	600731.941234460155	2493.7740303576
0	7323	601140.977866854573	2068.6178131029
0	7330	602133.830358088072	2251.4131322969
0	7339	602558.064445434194	1826.123210974
0	7348	603341.609112080242	1740.9010514617
0	7359	604162.694214284476	1856.2753398903
1	3145	260186.750423954824	348
1	3156	261332.540963776433	349
1	3165	262099.718861980388	350
1	3176	262985.878893127689	351
1	3185	263472.030594013655	352
1	3194	264096.389979030961	353
1	3199	264468.782876338834	354
1	3212	265085.521079320485	355
1	3219	265838.579828711251	356
1	3228	266513.373433146651	357
1	3235	267070.826700003843	358
1	3244	268003.914351342271	359
1	3253	268691.742407251174	360
1	3262	269608.25291667136	361
1	3273	270303.747698105896	362
1	3280	271100.277631357337	363
1	3291	272063.515650574143	364
1	3302	272994.379353197316	365
1	3309	273540.628506615782	366
1	3320	274466.097401641334	367
1	3325	274788.222934165994	368
1	3336	275907.909274846341	369
1	3343	276440.720368595819	370
1	3354	277026.991877937715	371
1	3361	277467.28278980593	372
1	3374	278464.37144153754	373
1	3381	278953.775504557442	374
1	3388	279390.804693941053	375
1	3401	280411.078484589259	376
1	3410	281279.954301752175	377
1	3415	281585.326922033007	378
1	3420	281927.666048426206	379
1	3435	282973.972661979521	380
1	3442	283813.292728364493	381
1	3451	284353.325626440371	382
1	3462	286072.724276734541	383
1	3469	286618.63847561183	384
1	3478	287048.012395435968	385
1	3489	287860.994318174222	386
1	3496	288468.340215319791	387
1	3509	289391.883608233207	388
1	3514	289693.382268911251	389
1	3527	290873.028359469049	390
1	3536	291396.235557412751	391
1	3543	291917.843535589077	392
1	3550	292278.249155217804	393
1	3559	293423.123677074931	394
1	3570	294093.155430955835	395
1	3581	295117.949353158496	396
1	3588	295796.070158807583	397
1	3595	296258.937749778874	398
1	3606	297315.423069940902	399
1	3617	298191.274807183094	400
1	3626	298977.419268339894	401
1	3635	299779.079659050352	402
1	3640	300097.434884123526	403
1	3651	301223.602275503821	404
1	3662	302055.742882238723	405
1	3669	302468.429937399946	406
1	3676	302965.961533784889	407
1	3685	303852.222529565938	408
1	3696	304679.778364067919	409
1	3705	305322.881880635418	410
1	3714	305877.599522564583	411
1	3721	306331.896229600557	412
1	3734	307549.375628493749	413
1	3743	308392.706683930032	414
1	3752	309270.394972991221	415
1	3757	309595.874713081889	416
1	3766	310320.813651289813	417
1	3779	311329.141707764961	418
1	3784	311704.977586772315	419
1	3793	312272.986856661759	420
1	3802	313174.688200000696	421
1	3815	314147.791108768456	422
1	3820	314452.182120317616	423
1	3829	315113.37082735265	424
1	3838	315797.067644912772	425
1	3847	316429.121358180441	426
1	3856	317238.837437750794	427
1	3865	317815.764322830386	428
1	3874	318629.666306125023	429
1	3885	320019.627455715113	430
1	3896	320867.125035915547	431
1	3901	321538.783935550624	432
1	3914	322280.3728069179	433
1	3921	322955.889820167819	434
1	3928	323595.172498701165	435
1	3937	324302.077490463878	436
1	3946	325061.921859718884	437
1	3955	325923.760901810627	438
1	3964	326344.80675864036	439
1	3973	327259.442825708563	440
1	3986	328122.196244029353	441
1	3995	328930.413980735491	442
1	4000	329317.508864309664	443
1	4011	329970.46553897674	444
1	4018	330350.982404965933	445
1	4027	331125.361495139103	446
1	4040	331963.974203215938	447
1	4049	332851.880804356214	448
1	4054	333419.752057269242	449
1	4063	334271.813624398809	450
1	4076	335014.985276525867	451
1	4085	335737.825416354489	452
1	4090	336320.709205186021	453
1	4099	336743.286629905951	454
1	4110	337877.657662611482	455
1	4119	338783.241862943424	456
1	4128	339648.636041069431	457
1	4135	340142.521774722291	458
1	4144	341044.199175993009	459
1	4155	341790.263784024892	460
1	4166	342394.772626273362	461
1	4173	342996.912424033536	462
1	4180	343456.075632199673	463
1	4189	344200.942256860464	464
1	4202	345146.532934019371	465
1	4209	345629.93843355219	466
1	4218	346205.673303455143	467
1	4225	346654.410995263636	468
1	4234	347407.76747628118	469
1	4243	348445.833841385349	470
1	4252	349062.772399233684	471
1	4265	349900.002381205588	472
1	4274	350701.841833395913	473
1	4281	351481.739558139846	474
1	4290	352012.546702288121	475
1	4299	353260.575239080966	476
1	4306	353701.34687460962	477
1	4315	354553.27860689725	478
1	4326	355575.695956824378	479
1	4335	356119.0267751925	480
1	4344	356934.416330605776	481
1	4351	357301.039462303773	482
1	4362	358446.028383728147	483
1	4369	358939.066809229583	484
1	4382	359850.650260923461	485
1	4387	360172.887518489764	486
1	4396	361040.106355492056	487
1	4405	361584.688336076246	488
1	4414	362469.050942407952	489
1	4423	363375.803892966392	490
1	4432	363902.995361527459	491
1	4441	364573.165431898119	492
1	4450	365115.369524527373	493
1	4461	366347.670182911711	494
1	4468	366816.907484969156	495
1	4477	367966.192291863295	496
1	4490	369055.084631312671	497
1	4497	369800.013432931188	498
1	4508	370593.874772451851	499
1	4515	371291.271474910933	500
1	4522	371961.414905497837	501
1	4531	372435.145796835456	502
1	4540	372988.126064837012	503
1	4553	374389.762675948474	504
1	4562	375283.833819022435	505
1	4571	376036.75651168454	506
1	4580	376577.325864974442	507
1	4585	376937.998385494608	508
1	4598	378033.283881191197	509
1	4607	378735.516212834078	510
1	4614	379438.037092052433	511
1	4625	380123.156096180933	512
1	4632	380695.868131890925	513
1	4643	381421.213356731491	514
1	4648	381968.902172707053	515
1	4659	382864.501151908221	516
1	4666	383286.986421374636	517
1	4675	383822.147930692914	518
1	4684	384873.533177934619	519
1	4693	385635.78304150145	520
1	4702	386279.215603228691	521
1	4711	386635.106957936691	522
1	4722	387645.147497300091	523
1	4729	388139.883830398354	524
1	4738	388646.539876749771	525
1	4749	389859.95367150757	526
1	4756	390233.122828183728	527
1	4765	391016.364652058142	528
1	4776	391492.385436175424	529
1	4787	392781.133538112078	530
1	4796	393592.262229044024	531
1	4805	394115.34241153862	532
1	4814	394803.762099612538	533
1	4823	395453.072248259593	534
1	4828	395827.943746559356	535
1	4841	396836.788246454705	536
1	4846	397397.75029770102	537
1	4855	398308.944459166412	538
1	4866	399324.14217833433	539
1	4873	399837.868280941655	540
1	4882	400383.449520589819	541
1	4893	400999.326899182086	542
1	4900	401764.26757187586	543
1	4909	402466.846706857939	544
1	4922	403579.516281746363	545
1	4931	404318.100070115214	546
1	4936	404628.454642044416	547
1	4945	405042.730332724785	548
1	4954	406147.364281676745	549
1	4967	407252.593680471217	550
1	4976	407975.40373303931	551
1	4983	408666.446268791368	552
1	4990	409318.255103845185	553
1	5001	410207.574284356122	554
1	5008	410730.218682484736	555
1	5021	411762.499009212514	556
1	5028	412482.227702066337	557
1	5037	413317.140683066135	558
1	5046	414006.261715013569	559
1	5057	414776.506243133954	560
1	5066	415669.113229494578	561
1	5075	416461.053071217648	562
1	5082	417191.542873531617	563
1	5093	417975.693951314352	564
1	5102	418770.158434845544	565
1	5107	419161.221659090407	566
1	5120	420407.695674849711	567
1	5129	421100.882537104226	568
1	5134	421533.536326652429	569
1	5143	422672.003643773533	570
1	5154	423297.136373072899	571
1	5163	424134.304987220131	572
1	5170	424452.119004540183	573
1	5179	425155.315733654462	574
1	5188	426066.467158310153	575
1	5199	426859.416638687291	576
1	5208	427564.662842452564	577
1	5219	428288.618196453936	578
1	5228	429039.773709001057	579
1	5235	429527.555941371285	580
1	5242	429901.555083878376	581
1	5251	431151.11614144411	582
1	5260	431711.018433328756	583
1	5273	432702.028651675248	584
1	5280	433004.759384365791	585
1	5287	433732.861943403298	586
1	5300	434704.079998657147	587
1	5309	435184.673388535197	588
1	5314	435794.643715303431	589
1	5325	436348.972596600692	590
1	5334	437210.213246243114	591
1	5341	437587.913821404839	592
1	5350	438431.123995268757	593
1	5361	439093.166716536547	594
1	5372	439953.581295814405	595
1	5381	440539.892841596196	596
1	5388	441293.016881961415	597
1	5395	441861.333624087313	598
1	5404	442686.657100031192	599
1	5413	443254.763745982239	600
1	5422	443868.59221891504	601
1	5435	444900.155438622498	602
1	5440	445207.522474369072	603
1	5449	445816.194587387183	604
1	5460	446765.326963830777	605
1	5467	447338.952394668051	606
1	5480	448403.808557661288	607
1	5487	448862.002120865547	608
1	5494	449370.936370734163	609
1	5507	450307.438457803838	610
1	5516	450885.361451748796	611
1	5525	451769.911041157358	612
1	5532	452330.047142459118	613
1	5541	453101.443747244814	614
1	5548	453618.570375815073	615
1	5557	454613.913123635615	616
1	5566	455128.129347693215	617
1	5575	455787.480690982233	618
1	5584	456702.287054015363	619
1	5595	457557.04880892303	620
1	5602	458116.747674671972	621
1	5611	458792.024613870348	622
1	5620	459498.427959345321	623
1	5629	460799.308321857866	624
1	5642	461829.380028136114	625
1	5651	462392.993733147199	626
1	5660	463227.30402876627	627
1	5667	463661.990675702731	628
1	5676	464328.692158777307	629
1	5683	464779.682002170052	630
1	5692	465645.59674859051	631
1	5703	466032.170850550797	632
1	5710	466681.19988818657	633
1	5721	467637.35032347035	634
1	5730	468502.714966703247	635
1	5741	469275.683658896055	636
1	5748	469766.013492923271	637
1	5755	470512.224375782575	638
1	5768	471479.300292301964	639
1	5773	472106.206812523346	640
1	5786	472874.025270436	641
1	5793	473667.678003525402	642
1	5800	474072.571686375927	643
1	5811	474818.961663404521	644
1	5820	475862.75634658527	645
1	5827	476219.983890373301	646
1	5836	477314.862253982615	647
1	5849	478254.512974899304	648
1	5854	478591.759684961331	649
1	5863	479116.593309631613	650
1	5872	479991.684353118804	651
1	5885	480754.535122308922	652
1	5890	481170.384590746877	653
1	5895	481638.44268685211	654
1	5908	482697.143520042342	655
1	5917	483476.465922128451	656
1	5928	484576.942984946114	657
1	5937	485245.311024645385	658
1	5944	485909.027665760411	659
1	5953	486468.90456969854	660
1	5962	487047.249314608095	661
1	5973	488531.595005700408	662
1	5980	488965.686531644358	663
1	5993	489941.929836245296	664
1	6000	490456.972401402933	665
1	6009	491612.318399129478	666
1	6016	492135.191376088229	667
1	6025	492635.052672866774	668
1	6036	493311.326585104731	669
1	6047	494171.217940421817	670
1	6052	494585.047863191036	671
1	6061	495209.221618389753	672
1	6074	496556.901946105105	673
1	6083	497334.301323629958	674
1	6088	497734.477974660737	675
1	6101	498528.735033609015	676
1	6108	499198.517979634968	677
1	6119	499981.132021034178	678
1	6124	500309.250204870519	679
1	6133	501099.628454865929	680
1	6142	501854.662138782483	681
1	6155	502787.195759033826	682
1	6164	503564.999439613935	683
1	6173	504191.971471393522	684
1	6180	504723.502132063773	685
1	6189	505750.165732065257	686
1	6198	506406.085115578067	687
1	6205	506963.338522659656	688
1	6214	507765.402319422034	689
1	6227	508706.281568761957	690
1	6232	509059.049829561305	691
1	6241	509435.680912993891	692
1	6250	510074.203799665016	693
1	6259	510997.137044649614	694
1	6270	512236.444337619512	695
1	6279	512830.122192855968	696
1	6288	513987.390845641536	697
1	6297	514692.196457460565	698
1	6308	515491.504763905001	699
1	6317	516389.426345424769	700
1	6324	516947.053419565824	701
1	6335	517967.110523488415	702
1	6344	518844.456161744935	703
1	6353	519669.754576915918	704
1	6360	520039.264394156678	705
1	6367	520818.466594722165	706
1	6378	521526.601477526172	707
1	6385	522239.023100724488	708
1	6394	523142.894714372277	709
1	6403	523889.340697042688	710
1	6412	524411.708536371633	711
1	6421	525326.534727634906	712
1	6430	525874.451319873378	713
1	6443	527104.386065946937	714
1	6450	527870.50475981091	715
1	6461	528455.27337645185	716
1	6466	528911.910820892125	717
1	6475	529714.577685948506	718
1	6486	530555.568158207506	719
1	6497	531377.066657552541	720
1	6504	532080.654847808228	721
1	6511	532945.746599743189	722
1	6520	533772.719355812343	723
1	6531	534611.894983146386	724
1	6542	535328.127892082604	725
1	6549	535683.985467860522	726
1	6558	536562.358047114732	727
1	6567	537407.229748042348	728
1	6578	538108.78145531756	729
1	6583	538495.772348949734	730
1	6596	539741.007036902059	731
1	6603	540223.662686627407	732
1	6610	540690.523557364989	733
1	6619	541609.758265363101	734
1	6632	542322.840087069247	735
1	6637	542757.526992866818	736
1	6646	543559.125228552196	737
1	6657	544345.407465007205	738
1	6664	544901.583117060412	739
1	6677	545987.986264424447	740
1	6684	546795.573450252462	741
1	6691	547429.794935602744	742
1	6700	547936.01666484033	743
1	6709	548637.235625647058	744
1	6722	549992.564504826491	745
1	6727	550388.521760143389	746
1	6736	551024.598397733693	747
1	6747	551985.627027321656	748
1	6756	552825.984704168563	749
1	6763	553168.957627611284	750
1	6772	554253.761391621133	751
1	6781	554997.517970111271	752
1	6792	556057.136345235681	753
1	6799	556674.136012466675	754
1	6808	557564.056390989622	755
1	6817	558209.654626529713	756
1	6826	559137.168720457753	757
1	6835	559926.442158222249	758
1	6844	560395.984259527227	759
1	6853	561100.091446470519	760
1	6864	562224.255432095429	761
1	6875	563296.163480356386	762
1	6884	563694.909540424174	763
1	6893	564544.491787813655	764
1	6900	565145.68115961743	765
1	6907	565943.339428352243	766
1	6916	566410.589753603614	767
1	6929	567683.481349702976	768
1	6936	568505.509895458869	769
1	6943	569061.815733136661	770
1	6956	570118.497991422243	771
1	6965	570978.348183631949	772
1	6972	571739.723775722139	773
1	6979	572045.370724797301	774
1	6990	573031.522523844667	775
1	6997	574056.652807351254	776
1	7008	574682.386684371211	777
1	7017	575177.653661370331	778
1	7024	575875.277273682931	779
1	7037	576985.704973340088	780
1	7044	577594.607749627957	781
1	7051	578084.887833846787	782
1	7056	578570.847629662657	783
1	7069	579748.601640528121	784
1	7080	580700.133492518269	785
1	7087	581549.551114300319	786
1	7098	582291.703588608706	787
1	7109	583092.191834701279	788
1	7118	583843.793395813608	789
1	7123	584258.538043918142	790
1	7136	585371.886017778942	791
1	7141	585867.588529363328	792
1	7152	586800.028299260938	793
1	7159	587221.056345943415	794
1	7170	588117.273551551678	795
1	7177	588760.671656532266	796
1	7188	589480.650731921249	797
1	7195	590076.554546970927	798
1	7208	591476.254885224679	799
1	7213	591848.014751030186	800
1	7222	592859.015650302225	801
1	7235	593983.31540403893	802
1	7242	594670.465951971763	803
1	7249	595048.007437214309	804
1	7260	596068.239327147657	805
1	7269	596670.530463801751	806
1	7276	597174.497576896155	807
1	7285	598097.670708177665	808
1	7294	598872.630794579218	809
1	7303	599602.415400138179	810
1	7316	600731.941234460155	811
1	7323	601140.977866854573	812
1	7330	602133.830358088072	813
1	7339	602558.064445434194	814
1	7348	603341.609112080242	815
1	7359	604162.694214284476	816

