version 2
run Pipelined_3Teachers-17-20190105-10:57:21-22552
attr configname Pipelined_3Teachers
attr datetime 20190105-10:57:21
attr experiment Pipelined_3Teachers
attr inifile ../simulations/omnetpp.ini
attr iterationvars "$0=\"uniform\""
attr iterationvarsf uniform-
attr measurement "$0=\"uniform\""
attr network PipelinedExamSession
attr processid 22552
attr repetition 17
attr replication #17
attr resultdir results
attr runnumber 17
attr seedset 17
param **.teachersNumber 3
param **.answerTimeDistribution "\"uniform\""
param **.minUniform 300
param **.maxUniform 900
param **.scaleLognormal 6.2854
param **.shapeLognormal 0.4724

vector 0 PipelinedExamSession examinationTime:vector ETV
attr source examFinished
vector 1 PipelinedExamSession studentID:vector ETV
attr source student
0	3145	260329.667784506476	1520.8289103583
0	3158	261605.921264737865	2183.38321466
0	3163	262105.8126781136	1915.8171874937
0	3172	262802.622281480601	1982.5947564561
0	3183	263668.92313216815	2063.0018674303
0	3190	264062.762668076924	1641.3684443571
0	3199	264594.27857324483	1572.2004619427
0	3208	265583.013616316041	1861.9160116185
0	3217	266297.779999533689	1934.8789868876
0	3226	267127.721233852228	2056.2478115782
0	3237	268140.737708006074	2262.9345370922
0	3244	268451.642742287387	1755.7663589716
0	3253	269209.912128187736	1919.0272926819
0	3262	270067.42590079086	1877.9362816829
0	3271	271245.917517179644	2165.4260601383
0	3282	272162.091126339531	2256.3421766739
0	3289	272483.816558355486	1687.4843419064
0	3298	273384.19522563929	1837.0193861425
0	3307	274103.490264108426	1723.7012474332
0	3320	274636.67580750773	1705.9031431563
0	3325	274988.84036075326	1440.998179419
0	3336	275950.334225641585	1731.3334851991
0	3343	276469.322255579776	1832.646448072
0	3354	277308.475356129951	1926.4326609671
0	3363	277907.075035572073	1859.8896502052
0	3372	278531.359379366061	1817.1426066197
0	3383	279388.766479538774	1866.9886898249
0	3392	280055.192788364386	2082.6394381933
0	3399	280832.170575717484	2275.9145425167
0	3406	281272.14647596704	1883.3799964283
0	3415	281954.241495626068	1899.0487072617
0	3426	283052.629733271917	2098.9193213638
0	3437	283906.795224873369	2223.3578592539
0	3444	284547.177239600589	2234.1751749627
0	3453	285333.388673560714	2212.7139423508
0	3464	286030.208374047672	2123.4131491743
0	3471	286755.947822146138	1970.4331340734
0	3482	287597.605911036974	2205.4817591328
0	3487	288216.73050178217	2186.5221277345
0	3496	288688.179739750942	1880.3778952919
0	3507	289923.043874697781	2325.4379636608
0	3516	290454.059776011875	2062.9384478554
0	3523	291166.793693415841	1883.0571978819
0	3534	291807.942491350716	1819.1332098562
0	3541	292349.627489363795	1829.4708725531
0	3554	293546.875065844527	2194.0387228969
0	3561	294300.515300547725	2114.7115734871
0	3572	295004.572165757439	2022.1868871711
0	3581	295876.743995770833	2329.8689299263
0	3586	296486.09381094577	2084.8703905474
0	3599	297154.101059585831	2149.5288938284
0	3606	297765.951212542153	1889.2072167713
0	3617	298635.13228618542	2045.8104004618
0	3626	299472.337591135896	2318.2365315501
0	3631	300188.162371655948	2339.0090006869
0	3642	300785.745948180578	2150.6136619952
0	3651	301680.865705758355	2208.5281146225
0	3658	302015.756877372063	1738.5799796786
0	3669	303327.432674495525	2274.2091831286
0	3676	303729.144093208037	1870.5524610355
0	3685	304506.452927459054	1841.5075005032
0	3696	305579.499282175697	2229.6949840151
0	3705	306482.488778466381	2278.8392395712
0	3714	307260.380480205662	2264.2379919067
0	3725	308164.237478328891	2364.1069100238
0	3732	308750.179234659322	2241.7789532337
0	3743	309335.272408090555	2047.6880821399
0	3752	309977.76832734237	1813.5308490135
0	3759	310625.026829307923	1852.4865170941
0	3766	311086.252078693384	1750.9796706028
0	3775	311737.032179301629	1759.2638519593
0	3784	312539.517272589753	1688.859986281
0	3793	312905.915764533008	1588.9071831945
0	3806	314270.667478954445	2178.2326484565
0	3815	315167.77451690289	2369.3914585747
0	3822	315743.402826832633	2317.6044104621
0	3833	316439.12951960231	2168.4620406479
0	3842	317202.847185311865	2035.072668409
0	3851	318062.352040736031	2146.1074372754
0	3858	318710.009269975152	2270.8797503728
0	3867	319641.705993935492	2438.8588086236
0	3878	320354.932779260006	2292.580738524
0	3883	320858.993377955657	1940.437327791
0	3894	321802.769840927821	2108.756440971
0	3903	322265.365208219764	1910.4324289598
0	3910	322905.281470064101	1810.6569149997
0	3919	323439.060371601981	1581.9049826358
0	3932	324305.027998052565	1943.949448457
0	3937	324947.925915895058	1856.1776235234
0	3948	325788.327309954939	2037.0524506085
0	3955	326150.522375805331	1845.4943777528
0	3964	327493.755623465432	2418.4979818761
0	3975	328335.710051050439	2377.7068519034
0	3982	328774.004375003308	1929.9058946315
0	3991	329508.549888012961	1874.7200437356
0	4000	330471.555193327397	2001.5557785518
0	4011	331146.108611812845	2031.459586462
0	4020	331916.639271145716	1924.7862534598
0	4027	332378.974168701127	1582.7966022771
0	4038	333250.593195715949	1939.3380193971
0	4045	333592.260145442591	1574.1302935872
0	4056	334882.281349645958	2341.6590676177
0	4063	335343.503624992475	2073.5851767473
0	4074	336076.10534322451	1929.8001654446
0	4081	336548.391451360687	1611.7636690848
0	4092	337746.322279935732	2323.6327340361
0	4103	338528.162129921868	2364.3820426427
0	4108	339045.097171375557	2024.2467548233
0	4119	339934.333387529507	2168.2759904768
0	4128	340445.191087480664	1917.0289575588
0	4139	341193.151148501814	1880.6731890421
0	4148	341874.815363064439	1919.8099665809
0	4157	342593.316026078568	2078.0641912948
0	4162	343018.55488177392	1825.4037332721
0	4173	344141.95418288003	2267.1388198156
0	4180	344671.726003289253	2078.4099772107
0	4189	345553.417934104831	2092.3610329628
0	4202	346418.135381815987	2189.2949240282
0	4207	346755.530426837536	1994.25678025
0	4218	347971.175805106791	2396.9860057812
0	4227	348641.169215552541	2223.0338337366
0	4236	349202.087274799156	1983.5065105464
0	4245	349910.17715893689	1906.6880091559
0	4252	350536.040144646573	1848.5856796615
0	4257	350883.186690788748	1490.9217604436
0	4270	352073.882590513709	1937.5590603333
0	4279	352890.187247470054	1973.2111975551
0	4290	353793.690119544077	2305.1327438559
0	4299	354715.190780349109	2408.6010036059
0	4306	355500.154910422895	2422.5324972533
0	4315	355997.214731248129	2098.772939248
0	4328	357340.607140352983	2549.4754776824
0	4333	357797.451220219988	2130.1725845318
0	4346	358525.705710472573	1987.4242837541
0	4353	359232.189366314594	1891.5822259616
0	4364	360034.158367384259	2131.98457947
0	4369	360419.950648862902	1894.2449383903
0	4380	361404.743660520797	2012.3322614003
0	4389	362200.901016918977	2166.7426495347
0	4398	362818.092811619898	2028.9752603509
0	4405	363149.714149721002	1669.8635196313
0	4414	363888.451788201963	1524.5835787151
0	4423	364666.18072832938	1619.4785170723
0	4436	366018.770285043901	2211.5960938856
0	4445	366786.135392496398	2361.6065107752
0	4450	367088.025972945651	1862.8316213842
0	4459	368135.896682739294	2117.1263976954
0	4472	369081.519584124944	2295.3841916285
0	4479	369391.945833200625	1876.4784505125
0	4486	370166.692759143224	1801.0811505374
0	4497	371128.786510415411	2047.2669262905
0	4504	371811.010655667668	2248.4696951229
0	4513	372379.270491655952	1928.7106573116
0	4524	373606.924114236643	2273.6549830064
0	4531	374151.045672968065	2012.4907025602
0	4540	374635.538816638326	1681.8434912246
0	4549	375289.467568835278	1529.7378194053
0	4560	376608.461590530386	2303.0012619216
0	4569	377557.98170221973	2526.3298119418
0	4580	378403.167011356016	2547.1669382416
0	4587	378943.383598281105	2198.8224572036
0	4594	379726.794833131169	2090.8091977704
0	4603	380668.459188938176	2265.2921775822
0	4616	381375.222836667707	2175.6118603516
0	4625	382155.231007095462	2200.7553800941
0	4632	382659.102753829247	1846.8259404413
0	4643	383307.930534426159	1932.7076977585
0	4650	383851.445312239266	1696.2143051438
0	4659	384522.145880805365	1802.9136610217
0	4666	385006.721918005533	1698.7913835794
0	4679	386021.836003381795	2054.3771363329
0	4686	386689.479451999104	1991.1828684155
0	4693	387066.334814904294	1741.6729092132
0	4706	388107.68749346029	2085.8514900785
0	4715	388903.884546551891	2212.8671040293
0	4724	389527.743443241381	2222.5086897612
0	4733	390238.451488316097	2130.7639948558
0	4740	390653.088038647585	1749.2034920957
0	4747	391121.705004852303	1593.9615616109
0	4756	391826.596716977693	1588.1452286616
0	4769	392898.982756538354	2207.7476413921
0	4776	393446.229155967049	1887.9592792131
0	4787	394425.232698535585	2350.6124767475
0	4796	395251.271646190473	2352.2888896521
0	4805	396055.76701783579	2427.2260414436
0	4814	396664.012417662928	2238.7797191273
0	4821	397359.257624158675	2107.9859779682
0	4830	398085.123221715952	2029.3562038802
0	4837	398854.795657144899	2190.783239482
0	4850	399616.773895779664	2168.4287976008
0	4855	400080.314354505429	1832.3780240491
0	4866	400827.493874821851	1680.6607869454
0	4873	401204.020186560267	1587.2462907806
0	4882	401947.500737244303	1446.646938147
0	4893	402788.35257855248	1930.1303724758
0	4900	403425.767996767576	1929.1563404258
0	4913	404212.376672728026	1940.8153162803
0	4922	404834.331951057577	1791.6651357897
0	4929	405504.034006968179	1774.1213033907
0	4940	406222.205889271611	2009.8292165436
0	4949	406878.581209899896	2044.2492588423
0	4954	407259.980830829629	1652.711494267
0	4963	407917.135055456349	1694.9291661847
0	4976	408930.22944414992	2051.64823425
0	4981	409234.180257841983	1749.299257854
0	4992	410350.219931965733	2290.9037834499
0	4999	411116.014897311145	2185.7854531612
0	5012	412147.650888003448	2391.1875473801
0	5017	412549.124011863062	2019.836220704
0	5030	413666.994367679621	2329.9683436286
0	5037	414095.75998513032	1948.1090971269
0	5044	414895.093086361925	1864.0096658841
0	5057	415852.439900580834	2185.4455329012
0	5064	416621.399783296551	2264.9296632037
0	5075	417270.192700903903	2136.9802511763
0	5084	418160.502923140343	2308.0630225595
0	5091	418918.067129328888	2223.0158929713
0	5098	419318.622800242197	2048.4300993383
0	5109	420534.773177839857	2374.2702546995
0	5118	421172.782419389155	2115.8614580054
0	5125	421693.683164985892	1941.993740201
0	5138	422647.535868175369	1997.4763832521
0	5145	423400.327834580135	1946.0302595515
0	5152	424060.019571846392	2049.7868673876
0	5163	424885.730921337422	2238.1950531621
0	5170	425333.233021711972	1848.2594752684
0	5181	426297.959236521315	1994.0258853603
0	5190	426864.160177717027	1743.4672471136
0	5199	427595.365822222126	1872.7199633606
0	5210	428168.784563289998	1841.8828435242
0	5219	428998.212269973053	1993.406526139
0	5228	429764.994670450731	2160.1686347276
0	5233	430299.873383995189	2131.0888207052
0	5246	431179.938529757827	2181.7262597848
0	5255	432066.816626116678	2301.8219556659
0	5260	432390.082232980102	1842.9489355534
0	5273	433800.87328772065	2620.9347579628
0	5278	434479.616084927737	2412.7994588111
0	5287	435126.837395690426	2211.4167143125
0	5298	435727.055280748799	1926.1819930281
0	5309	436609.685516590297	2005.432998715
0	5314	437184.385244920894	1938.1480481476
0	5325	438117.717261565894	2289.3699429464
0	5334	438655.000603990674	2045.3150874004
0	5341	439190.403641760394	1733.0092628952
0	5350	439741.203528503001	1584.405598836
0	5363	441162.097907485485	2302.7409001719
0	5368	441625.581292156175	2185.5661375914
0	5381	442639.554677205205	2304.5236155856
0	5388	443110.462427744687	1948.3645202592
0	5399	444010.410014167473	2211.7466064636
0	5404	444464.690221846149	1825.1355446409
0	5417	445286.516518006146	2106.4000281505
0	5422	445849.249440198809	1838.8394260313
0	5431	446404.640779970259	1856.1731938273
0	5440	447199.841158557728	1913.3246405516
0	5453	448383.425862249032	2291.690945439
0	5460	449154.448883654595	2296.3559760712
0	5467	449840.791427716658	2192.6934546791
0	5480	450706.311595905617	2322.8857336566
0	5487	451483.817969961137	2238.6556419544
0	5498	452270.758914481893	2196.0205333773
0	5503	452725.792865082666	2019.481269177
0	5516	453807.991801807701	2220.3456769232
0	5525	454256.429339479699	1985.6704249978
0	5530	454698.041570093527	1556.9162598811
0	5539	455264.085169415965	1456.0933676083
0	5552	456276.109219668476	2019.6798801888
0	5559	456736.180711258246	1772.384958202
0	5568	457552.407701639502	2016.4204424713
0	5577	458404.276415426328	2128.1671957579
0	5586	458991.975988866805	2008.621640224
0	5595	459842.654518503739	2201.0086573195
0	5604	460558.478908147706	2151.4967754018
0	5615	461379.441217007159	2135.1755748969
0	5622	461800.439918786331	1896.4334042743
0	5629	462342.924451036422	1712.724660337
0	5638	463377.191113634079	1997.7498966269
0	5651	464220.575801795393	2222.0523473807
0	5658	464880.150274839297	2051.3857668266
0	5667	465389.920595381454	1981.1984020751
0	5678	466155.423364229545	1934.8475624342
0	5683	466659.618004085541	1672.4173975177
0	5692	467135.328592546329	1480.7959612459
0	5701	467818.577207392126	1663.1538431626
0	5710	468506.539186975032	1632.257315889
0	5719	469080.487695056989	1595.0019686948
0	5730	470065.170041844293	1930.5993265472
0	5739	470702.7950576507	1859.453829797
0	5748	471558.365200739399	1989.9867469445
0	5759	472353.528263932139	2145.076962607
0	5766	472865.163914440245	2042.7740279585
0	5773	473631.799351237759	2011.7705294397
0	5786	474820.244901487649	2466.7166375555
0	5795	475594.377655629114	2342.7691407502
0	5800	475922.057486884341	1879.3341390789
0	5809	476395.796180795923	1575.5512793083
0	5818	477107.403993699745	1513.0263380706
0	5827	477891.492974571929	1818.948456645
0	5840	478768.875424470798	1971.6566565447
0	5847	479363.824849901766	1743.5275841039
0	5856	480178.143595950723	1990.1543254964
0	5865	480731.602923944638	1962.7274994738
0	5872	481056.048187427268	1625.8659916464
0	5881	482184.867258137137	1873.6134530045
0	5890	482923.341521155135	2007.8928674106
0	5901	483870.882271835627	2233.1936955918
0	5908	484443.040736625017	1931.2390878797
0	5913	484819.024530658544	1586.9711591396
0	5926	485992.053844174417	1917.6413269714
0	5935	486853.109825123148	1915.0611818768
0	5944	487859.40692061563	2155.1243023016
0	5955	488742.439212324145	2245.7614005078
0	5962	489086.811665631878	1719.8137192056
0	5975	490469.364710664424	2349.6641155332
0	5982	490895.28407002804	2015.1274657343
0	5991	491736.672711186159	2086.0081880819
0	5998	492263.271355116788	1793.9066444524
0	6009	493201.141141913879	2021.1942607071
0	6020	494286.681644897956	2518.5288315173
0	6027	494886.128005245749	2322.4224844482
0	6036	495586.102055339191	2137.050769385
0	6047	496564.080833829987	2277.399188932
0	6054	496922.545165848035	1992.753132619
0	6057	497230.824561277453	1506.4343176782
0	6072	498466.06293772352	1901.9821038935
0	6079	499238.52543197577	2002.8924215119
0	6092	500133.145476272377	2212.1575365309
0	6097	500701.331496611285	2005.0208020024
0	6106	501329.747020639527	1830.8767774142
0	6117	502352.554813167128	2219.4093368948
0	6124	503014.725016616333	2143.9287734684
0	6135	503868.550876714337	2112.5371186528
0	6142	504274.331978056628	1647.314803116
0	6155	505208.102576807189	2008.3657595795
0	6162	505960.543671296957	2018.5726229567
0	6171	506563.521679909947	1855.8405301999
0	6178	507145.435744570615	1937.3331677634
0	6187	507604.364097537521	1595.2552589122
0	6200	508868.613729765686	2172.3438278306
0	6207	509551.164021156776	2207.2523967829
0	6218	510487.563772033947	2442.312401114
0	6223	511075.681675085845	2207.0679453202
0	6232	511669.859779486479	2057.4014457408
0	6243	512804.77681579073	2317.2130437568
0	6250	513351.615181239369	2073.5787531361
0	6263	514053.558806749109	1938.8394844718
0	6268	514409.008439909715	1435.9112986363
0	6277	515392.367272870663	1968.7308180146
0	6290	516132.678275881383	2079.1194691323
0	6295	516665.178466122645	1954.753327975
0	6308	517603.628319175961	2131.0657446273
0	6313	518035.986279789405	1903.308003908
0	6326	518900.572531577247	1933.1997808535
0	6333	519317.287936247933	1713.659617072
0	6342	520095.485987048643	1697.0651240554
0	6351	520822.643650369766	1922.0711187925
0	6362	521670.31176849273	2076.8181849271
0	6367	522209.241760382475	2041.4127237629
0	6378	522755.281981453346	1921.1232301779
0	6389	523523.604575917171	1853.2928074244
0	6394	523835.636598570319	1494.1961349919
0	6407	525134.896810306282	2365.8461024053
0	6414	525579.141471488447	2055.5368955713
0	6423	526746.803345717535	2441.9794678688
0	6432	527115.181753132538	1980.2849428263
0	6439	527812.391902785794	1881.4692714717
0	6448	528516.071755578787	1739.2641388346
0	6459	529633.097310550557	1997.0504522324
0	6466	529936.59912049775	1783.8778833859
0	6479	531278.058984316932	2292.4781430513
0	6488	532148.322060098918	2446.3021923322
0	6493	532699.401019932749	2162.6348053571
0	6506	533454.935672460171	2176.8766881432
0	6515	534315.22497036499	2166.9029102661
0	6520	534698.141991393688	1862.3938906007
0	6525	535129.999735252978	1675.0640627928
0	6538	536835.535194492014	2520.310224127
0	6547	537267.569777229847	2077.0340989809
0	6558	538196.284053660976	2146.044335654
0	6567	539204.999293992342	2256.0259681195
0	6578	540015.717342356266	2540.2527876198
0	6583	540381.863008020492	2009.1823628638
0	6594	541061.095562763559	1820.3707826324
0	6603	541945.026886789175	1929.3095444329
0	6614	542465.08681727578	1925.6445227657
0	6621	542804.784265765968	1701.8310943153
0	6628	543362.428084854084	1408.1387390848
0	6639	544382.755336398306	1917.6685191225
0	6650	545098.365298518959	2078.9884050842
0	6657	545501.071511814419	1643.1749015115
0	6666	546160.280059045229	1662.8280483652
0	6673	546664.859348908115	1566.4940503892
0	6686	547369.878683891196	1818.0959096644
0	6695	548263.628394389574	2047.6105467416
0	6704	548844.862662954305	2026.8906025216
0	6711	549532.419000612621	2162.5403167214
0	6718	550128.673247667079	1865.0448532775
0	6729	551019.250402227094	2174.3877392728
0	6736	551427.210778696512	1746.1313936859
0	6745	551830.771970422988	1314.4084619824
0	6754	552671.228565461984	1496.6431957204
0	6763	553273.061669664507	1763.5091756936
0	6774	554481.055429391613	2146.7471501324
0	6781	555084.301458438909	1852.4016635958
0	6792	555773.660412803342	1710.2347981185
0	6799	556288.003827212428	1732.5915837195
0	6808	557136.07976376084	1853.7028093357
0	6821	558160.230688238566	2103.0743950512
0	6826	558498.642254713972	1894.8606158607
0	6835	559129.358724458193	1731.8577005994
0	6844	560323.269209079494	2163.0385208409
0	6855	561298.920201743071	2293.847672129
0	6864	562309.035167796587	2445.9843670484
0	6873	563245.056787971457	2649.078450026
0	6884	564006.37907339265	2511.6299120709
0	6891	564542.287808982706	2158.8766343426
0	6902	565374.31888030847	2116.527919611
0	6909	566212.648555403626	2206.269482011
0	6918	566905.815770337408	2157.2631380986
0	6927	567638.233472826009	2263.9145925175
0	6936	568364.454559609344	2148.9810544532
0	6943	569307.132656592926	2397.4401440006
0	6956	570048.880647914535	2340.6646780204
0	6965	570841.12619678495	2387.7289743628
0	6972	571676.214214274711	2363.1374579854
0	6981	572032.252647914044	1983.3719999995
0	6990	572931.227333983458	2090.1011371985
0	6999	573640.460736723668	1921.8441221863
0	7010	574667.961519677244	2280.5130074266
0	7019	575351.723871985502	2344.1102018114
0	7024	575779.30694720713	1916.6283306666
0	7037	576673.198376828857	2005.2368571516
0	7044	577067.763576004707	1716.0397040192
0	7051	577626.203889912047	1528.9446535986
0	7060	578237.240842357331	1564.0424655285
0	7069	579229.085942264699	1984.8848568276
0	7078	579923.553222511016	1973.3798970468
0	7087	580866.649191174709	2018.7460175715
0	7098	581795.010271249391	2266.0837015137
0	7107	582345.724713988655	2030.4585230537
0	7114	582807.871235115506	1718.0406202096
0	7123	583613.711774116435	1669.6490795352
0	7132	584402.084302995406	1818.964364659
0	7143	585555.453665927105	2111.8614967447
0	7150	586004.175253724732	1984.3466490973
0	7161	586701.076359674387	1822.3195668776
0	7170	587652.898183744453	2026.2730681803
0	7177	588139.827787550219	1848.4429847449
0	7188	589443.711387924902	2280.4192945361
0	7197	590283.383383881352	2439.6764227655
0	7206	591152.411118149809	2421.3336782064
0	7213	591454.313520295597	1846.7212690506
0	7222	592351.9722284284	2038.0903897807
0	7231	593277.459332579799	2116.7637190316
0	7242	594325.352432532287	2314.4212934654
0	7253	594925.66206464549	2077.5428863708
0	7258	595412.457542913085	1812.6911062282
0	7269	596448.170878272554	2114.7626799066
0	7280	597258.238339657014	2332.5762750115
0	7285	597571.664403984373	1989.2165115103
0	7294	598245.734313922053	1772.5640572608
0	7303	598993.255461473069	1735.0171218161
0	7316	600176.753936056098	2375.2057534643
0	7321	600845.326004130816	2164.1429929063
0	7332	601550.253321044197	2254.5083798468
0	7339	601942.16736741369	1765.4134313576
0	7348	602452.721261512539	1543.0893264245
0	7359	603786.821136949634	2144.8376392946
0	7366	604183.973141200891	1877.7884444688
0	7375	604741.097629023766	1778.9660994429
1	3145	260329.667784506476	348
1	3158	261605.921264737865	349
1	3163	262105.8126781136	350
1	3172	262802.622281480601	351
1	3183	263668.92313216815	352
1	3190	264062.762668076924	353
1	3199	264594.27857324483	354
1	3208	265583.013616316041	355
1	3217	266297.779999533689	356
1	3226	267127.721233852228	357
1	3237	268140.737708006074	358
1	3244	268451.642742287387	359
1	3253	269209.912128187736	360
1	3262	270067.42590079086	361
1	3271	271245.917517179644	362
1	3282	272162.091126339531	363
1	3289	272483.816558355486	364
1	3298	273384.19522563929	365
1	3307	274103.490264108426	366
1	3320	274636.67580750773	367
1	3325	274988.84036075326	368
1	3336	275950.334225641585	369
1	3343	276469.322255579776	370
1	3354	277308.475356129951	371
1	3363	277907.075035572073	372
1	3372	278531.359379366061	373
1	3383	279388.766479538774	374
1	3392	280055.192788364386	375
1	3399	280832.170575717484	376
1	3406	281272.14647596704	377
1	3415	281954.241495626068	378
1	3426	283052.629733271917	379
1	3437	283906.795224873369	380
1	3444	284547.177239600589	381
1	3453	285333.388673560714	382
1	3464	286030.208374047672	383
1	3471	286755.947822146138	384
1	3482	287597.605911036974	385
1	3487	288216.73050178217	386
1	3496	288688.179739750942	387
1	3507	289923.043874697781	388
1	3516	290454.059776011875	389
1	3523	291166.793693415841	390
1	3534	291807.942491350716	391
1	3541	292349.627489363795	392
1	3554	293546.875065844527	393
1	3561	294300.515300547725	394
1	3572	295004.572165757439	395
1	3581	295876.743995770833	396
1	3586	296486.09381094577	397
1	3599	297154.101059585831	398
1	3606	297765.951212542153	399
1	3617	298635.13228618542	400
1	3626	299472.337591135896	401
1	3631	300188.162371655948	402
1	3642	300785.745948180578	403
1	3651	301680.865705758355	404
1	3658	302015.756877372063	405
1	3669	303327.432674495525	406
1	3676	303729.144093208037	407
1	3685	304506.452927459054	408
1	3696	305579.499282175697	409
1	3705	306482.488778466381	410
1	3714	307260.380480205662	411
1	3725	308164.237478328891	412
1	3732	308750.179234659322	413
1	3743	309335.272408090555	414
1	3752	309977.76832734237	415
1	3759	310625.026829307923	416
1	3766	311086.252078693384	417
1	3775	311737.032179301629	418
1	3784	312539.517272589753	419
1	3793	312905.915764533008	420
1	3806	314270.667478954445	421
1	3815	315167.77451690289	422
1	3822	315743.402826832633	423
1	3833	316439.12951960231	424
1	3842	317202.847185311865	425
1	3851	318062.352040736031	426
1	3858	318710.009269975152	427
1	3867	319641.705993935492	428
1	3878	320354.932779260006	429
1	3883	320858.993377955657	430
1	3894	321802.769840927821	431
1	3903	322265.365208219764	432
1	3910	322905.281470064101	433
1	3919	323439.060371601981	434
1	3932	324305.027998052565	435
1	3937	324947.925915895058	436
1	3948	325788.327309954939	437
1	3955	326150.522375805331	438
1	3964	327493.755623465432	439
1	3975	328335.710051050439	440
1	3982	328774.004375003308	441
1	3991	329508.549888012961	442
1	4000	330471.555193327397	443
1	4011	331146.108611812845	444
1	4020	331916.639271145716	445
1	4027	332378.974168701127	446
1	4038	333250.593195715949	447
1	4045	333592.260145442591	448
1	4056	334882.281349645958	449
1	4063	335343.503624992475	450
1	4074	336076.10534322451	451
1	4081	336548.391451360687	452
1	4092	337746.322279935732	453
1	4103	338528.162129921868	454
1	4108	339045.097171375557	455
1	4119	339934.333387529507	456
1	4128	340445.191087480664	457
1	4139	341193.151148501814	458
1	4148	341874.815363064439	459
1	4157	342593.316026078568	460
1	4162	343018.55488177392	461
1	4173	344141.95418288003	462
1	4180	344671.726003289253	463
1	4189	345553.417934104831	464
1	4202	346418.135381815987	465
1	4207	346755.530426837536	466
1	4218	347971.175805106791	467
1	4227	348641.169215552541	468
1	4236	349202.087274799156	469
1	4245	349910.17715893689	470
1	4252	350536.040144646573	471
1	4257	350883.186690788748	472
1	4270	352073.882590513709	473
1	4279	352890.187247470054	474
1	4290	353793.690119544077	475
1	4299	354715.190780349109	476
1	4306	355500.154910422895	477
1	4315	355997.214731248129	478
1	4328	357340.607140352983	479
1	4333	357797.451220219988	480
1	4346	358525.705710472573	481
1	4353	359232.189366314594	482
1	4364	360034.158367384259	483
1	4369	360419.950648862902	484
1	4380	361404.743660520797	485
1	4389	362200.901016918977	486
1	4398	362818.092811619898	487
1	4405	363149.714149721002	488
1	4414	363888.451788201963	489
1	4423	364666.18072832938	490
1	4436	366018.770285043901	491
1	4445	366786.135392496398	492
1	4450	367088.025972945651	493
1	4459	368135.896682739294	494
1	4472	369081.519584124944	495
1	4479	369391.945833200625	496
1	4486	370166.692759143224	497
1	4497	371128.786510415411	498
1	4504	371811.010655667668	499
1	4513	372379.270491655952	500
1	4524	373606.924114236643	501
1	4531	374151.045672968065	502
1	4540	374635.538816638326	503
1	4549	375289.467568835278	504
1	4560	376608.461590530386	505
1	4569	377557.98170221973	506
1	4580	378403.167011356016	507
1	4587	378943.383598281105	508
1	4594	379726.794833131169	509
1	4603	380668.459188938176	510
1	4616	381375.222836667707	511
1	4625	382155.231007095462	512
1	4632	382659.102753829247	513
1	4643	383307.930534426159	514
1	4650	383851.445312239266	515
1	4659	384522.145880805365	516
1	4666	385006.721918005533	517
1	4679	386021.836003381795	518
1	4686	386689.479451999104	519
1	4693	387066.334814904294	520
1	4706	388107.68749346029	521
1	4715	388903.884546551891	522
1	4724	389527.743443241381	523
1	4733	390238.451488316097	524
1	4740	390653.088038647585	525
1	4747	391121.705004852303	526
1	4756	391826.596716977693	527
1	4769	392898.982756538354	528
1	4776	393446.229155967049	529
1	4787	394425.232698535585	530
1	4796	395251.271646190473	531
1	4805	396055.76701783579	532
1	4814	396664.012417662928	533
1	4821	397359.257624158675	534
1	4830	398085.123221715952	535
1	4837	398854.795657144899	536
1	4850	399616.773895779664	537
1	4855	400080.314354505429	538
1	4866	400827.493874821851	539
1	4873	401204.020186560267	540
1	4882	401947.500737244303	541
1	4893	402788.35257855248	542
1	4900	403425.767996767576	543
1	4913	404212.376672728026	544
1	4922	404834.331951057577	545
1	4929	405504.034006968179	546
1	4940	406222.205889271611	547
1	4949	406878.581209899896	548
1	4954	407259.980830829629	549
1	4963	407917.135055456349	550
1	4976	408930.22944414992	551
1	4981	409234.180257841983	552
1	4992	410350.219931965733	553
1	4999	411116.014897311145	554
1	5012	412147.650888003448	555
1	5017	412549.124011863062	556
1	5030	413666.994367679621	557
1	5037	414095.75998513032	558
1	5044	414895.093086361925	559
1	5057	415852.439900580834	560
1	5064	416621.399783296551	561
1	5075	417270.192700903903	562
1	5084	418160.502923140343	563
1	5091	418918.067129328888	564
1	5098	419318.622800242197	565
1	5109	420534.773177839857	566
1	5118	421172.782419389155	567
1	5125	421693.683164985892	568
1	5138	422647.535868175369	569
1	5145	423400.327834580135	570
1	5152	424060.019571846392	571
1	5163	424885.730921337422	572
1	5170	425333.233021711972	573
1	5181	426297.959236521315	574
1	5190	426864.160177717027	575
1	5199	427595.365822222126	576
1	5210	428168.784563289998	577
1	5219	428998.212269973053	578
1	5228	429764.994670450731	579
1	5233	430299.873383995189	580
1	5246	431179.938529757827	581
1	5255	432066.816626116678	582
1	5260	432390.082232980102	583
1	5273	433800.87328772065	584
1	5278	434479.616084927737	585
1	5287	435126.837395690426	586
1	5298	435727.055280748799	587
1	5309	436609.685516590297	588
1	5314	437184.385244920894	589
1	5325	438117.717261565894	590
1	5334	438655.000603990674	591
1	5341	439190.403641760394	592
1	5350	439741.203528503001	593
1	5363	441162.097907485485	594
1	5368	441625.581292156175	595
1	5381	442639.554677205205	596
1	5388	443110.462427744687	597
1	5399	444010.410014167473	598
1	5404	444464.690221846149	599
1	5417	445286.516518006146	600
1	5422	445849.249440198809	601
1	5431	446404.640779970259	602
1	5440	447199.841158557728	603
1	5453	448383.425862249032	604
1	5460	449154.448883654595	605
1	5467	449840.791427716658	606
1	5480	450706.311595905617	607
1	5487	451483.817969961137	608
1	5498	452270.758914481893	609
1	5503	452725.792865082666	610
1	5516	453807.991801807701	611
1	5525	454256.429339479699	612
1	5530	454698.041570093527	613
1	5539	455264.085169415965	614
1	5552	456276.109219668476	615
1	5559	456736.180711258246	616
1	5568	457552.407701639502	617
1	5577	458404.276415426328	618
1	5586	458991.975988866805	619
1	5595	459842.654518503739	620
1	5604	460558.478908147706	621
1	5615	461379.441217007159	622
1	5622	461800.439918786331	623
1	5629	462342.924451036422	624
1	5638	463377.191113634079	625
1	5651	464220.575801795393	626
1	5658	464880.150274839297	627
1	5667	465389.920595381454	628
1	5678	466155.423364229545	629
1	5683	466659.618004085541	630
1	5692	467135.328592546329	631
1	5701	467818.577207392126	632
1	5710	468506.539186975032	633
1	5719	469080.487695056989	634
1	5730	470065.170041844293	635
1	5739	470702.7950576507	636
1	5748	471558.365200739399	637
1	5759	472353.528263932139	638
1	5766	472865.163914440245	639
1	5773	473631.799351237759	640
1	5786	474820.244901487649	641
1	5795	475594.377655629114	642
1	5800	475922.057486884341	643
1	5809	476395.796180795923	644
1	5818	477107.403993699745	645
1	5827	477891.492974571929	646
1	5840	478768.875424470798	647
1	5847	479363.824849901766	648
1	5856	480178.143595950723	649
1	5865	480731.602923944638	650
1	5872	481056.048187427268	651
1	5881	482184.867258137137	652
1	5890	482923.341521155135	653
1	5901	483870.882271835627	654
1	5908	484443.040736625017	655
1	5913	484819.024530658544	656
1	5926	485992.053844174417	657
1	5935	486853.109825123148	658
1	5944	487859.40692061563	659
1	5955	488742.439212324145	660
1	5962	489086.811665631878	661
1	5975	490469.364710664424	662
1	5982	490895.28407002804	663
1	5991	491736.672711186159	664
1	5998	492263.271355116788	665
1	6009	493201.141141913879	666
1	6020	494286.681644897956	667
1	6027	494886.128005245749	668
1	6036	495586.102055339191	669
1	6047	496564.080833829987	670
1	6054	496922.545165848035	671
1	6057	497230.824561277453	672
1	6072	498466.06293772352	673
1	6079	499238.52543197577	674
1	6092	500133.145476272377	675
1	6097	500701.331496611285	676
1	6106	501329.747020639527	677
1	6117	502352.554813167128	678
1	6124	503014.725016616333	679
1	6135	503868.550876714337	680
1	6142	504274.331978056628	681
1	6155	505208.102576807189	682
1	6162	505960.543671296957	683
1	6171	506563.521679909947	684
1	6178	507145.435744570615	685
1	6187	507604.364097537521	686
1	6200	508868.613729765686	687
1	6207	509551.164021156776	688
1	6218	510487.563772033947	689
1	6223	511075.681675085845	690
1	6232	511669.859779486479	691
1	6243	512804.77681579073	692
1	6250	513351.615181239369	693
1	6263	514053.558806749109	694
1	6268	514409.008439909715	695
1	6277	515392.367272870663	696
1	6290	516132.678275881383	697
1	6295	516665.178466122645	698
1	6308	517603.628319175961	699
1	6313	518035.986279789405	700
1	6326	518900.572531577247	701
1	6333	519317.287936247933	702
1	6342	520095.485987048643	703
1	6351	520822.643650369766	704
1	6362	521670.31176849273	705
1	6367	522209.241760382475	706
1	6378	522755.281981453346	707
1	6389	523523.604575917171	708
1	6394	523835.636598570319	709
1	6407	525134.896810306282	710
1	6414	525579.141471488447	711
1	6423	526746.803345717535	712
1	6432	527115.181753132538	713
1	6439	527812.391902785794	714
1	6448	528516.071755578787	715
1	6459	529633.097310550557	716
1	6466	529936.59912049775	717
1	6479	531278.058984316932	718
1	6488	532148.322060098918	719
1	6493	532699.401019932749	720
1	6506	533454.935672460171	721
1	6515	534315.22497036499	722
1	6520	534698.141991393688	723
1	6525	535129.999735252978	724
1	6538	536835.535194492014	725
1	6547	537267.569777229847	726
1	6558	538196.284053660976	727
1	6567	539204.999293992342	728
1	6578	540015.717342356266	729
1	6583	540381.863008020492	730
1	6594	541061.095562763559	731
1	6603	541945.026886789175	732
1	6614	542465.08681727578	733
1	6621	542804.784265765968	734
1	6628	543362.428084854084	735
1	6639	544382.755336398306	736
1	6650	545098.365298518959	737
1	6657	545501.071511814419	738
1	6666	546160.280059045229	739
1	6673	546664.859348908115	740
1	6686	547369.878683891196	741
1	6695	548263.628394389574	742
1	6704	548844.862662954305	743
1	6711	549532.419000612621	744
1	6718	550128.673247667079	745
1	6729	551019.250402227094	746
1	6736	551427.210778696512	747
1	6745	551830.771970422988	748
1	6754	552671.228565461984	749
1	6763	553273.061669664507	750
1	6774	554481.055429391613	751
1	6781	555084.301458438909	752
1	6792	555773.660412803342	753
1	6799	556288.003827212428	754
1	6808	557136.07976376084	755
1	6821	558160.230688238566	756
1	6826	558498.642254713972	757
1	6835	559129.358724458193	758
1	6844	560323.269209079494	759
1	6855	561298.920201743071	760
1	6864	562309.035167796587	761
1	6873	563245.056787971457	762
1	6884	564006.37907339265	763
1	6891	564542.287808982706	764
1	6902	565374.31888030847	765
1	6909	566212.648555403626	766
1	6918	566905.815770337408	767
1	6927	567638.233472826009	768
1	6936	568364.454559609344	769
1	6943	569307.132656592926	770
1	6956	570048.880647914535	771
1	6965	570841.12619678495	772
1	6972	571676.214214274711	773
1	6981	572032.252647914044	774
1	6990	572931.227333983458	775
1	6999	573640.460736723668	776
1	7010	574667.961519677244	777
1	7019	575351.723871985502	778
1	7024	575779.30694720713	779
1	7037	576673.198376828857	780
1	7044	577067.763576004707	781
1	7051	577626.203889912047	782
1	7060	578237.240842357331	783
1	7069	579229.085942264699	784
1	7078	579923.553222511016	785
1	7087	580866.649191174709	786
1	7098	581795.010271249391	787
1	7107	582345.724713988655	788
1	7114	582807.871235115506	789
1	7123	583613.711774116435	790
1	7132	584402.084302995406	791
1	7143	585555.453665927105	792
1	7150	586004.175253724732	793
1	7161	586701.076359674387	794
1	7170	587652.898183744453	795
1	7177	588139.827787550219	796
1	7188	589443.711387924902	797
1	7197	590283.383383881352	798
1	7206	591152.411118149809	799
1	7213	591454.313520295597	800
1	7222	592351.9722284284	801
1	7231	593277.459332579799	802
1	7242	594325.352432532287	803
1	7253	594925.66206464549	804
1	7258	595412.457542913085	805
1	7269	596448.170878272554	806
1	7280	597258.238339657014	807
1	7285	597571.664403984373	808
1	7294	598245.734313922053	809
1	7303	598993.255461473069	810
1	7316	600176.753936056098	811
1	7321	600845.326004130816	812
1	7332	601550.253321044197	813
1	7339	601942.16736741369	814
1	7348	602452.721261512539	815
1	7359	603786.821136949634	816
1	7366	604183.973141200891	817
1	7375	604741.097629023766	818

