version 2
run Pipelined_3Teachers-11-20190105-10:57:20-10040
attr configname Pipelined_3Teachers
attr datetime 20190105-10:57:20
attr experiment Pipelined_3Teachers
attr inifile ../simulations/omnetpp.ini
attr iterationvars "$0=\"uniform\""
attr iterationvarsf uniform-
attr measurement "$0=\"uniform\""
attr network PipelinedExamSession
attr processid 10040
attr repetition 11
attr replication #11
attr resultdir results
attr runnumber 11
attr seedset 11
param **.teachersNumber 3
param **.answerTimeDistribution "\"uniform\""
param **.minUniform 300
param **.maxUniform 900
param **.scaleLognormal 6.2854
param **.shapeLognormal 0.4724

vector 0 PipelinedExamSession examinationTime:vector ETV
attr source examFinished
vector 1 PipelinedExamSession studentID:vector ETV
attr source student
0	3149	260566.166203189651	2189.2733800225
0	3158	261464.988266397277	2485.4586353526
0	3165	262031.208783248449	2228.8739624899
0	3176	263049.61443641224	2483.4482332226
0	3183	263855.155907431627	2390.1676410343
0	3194	264685.914617031823	2491.2060119212
0	3203	265427.983481856073	2378.3690454438
0	3210	265983.990675956021	2057.1894837543
0	3217	266298.091746401052	1612.1771293692
0	3226	267424.202863080438	1996.2193812244
0	3235	267926.441051904123	1771.9994170591
0	3244	268913.524725241597	1951.4447419904
0	3255	269513.77787590028	2035.3594499175
0	3262	269933.533875457954	1566.1701589823
0	3273	270803.17353308202	1789.8398530204
0	3284	271634.918378340092	2115.1919874363
0	3291	272262.64035254718	2179.6852917876
0	3302	273001.275148848084	2086.9311739225
0	3309	273434.139485796926	1799.2211074568
0	3316	273807.197502627981	1454.1837441735
0	3329	274889.010035572586	1887.7348867245
0	3336	275427.513629570616	1957.3536333628
0	3345	275992.016861820606	1743.8770155888
0	3352	276537.025877600548	1648.015842028
0	3361	277632.22791804002	1985.8447723556
0	3370	278240.522124292342	1882.9580881633
0	3379	279451.421196665627	2219.4194281474
0	3388	280134.004378644762	2006.0494977515
0	3401	281288.036653446046	2329.1016326286
0	3406	281669.304176839081	2068.2624016888
0	3417	282428.059024550033	1933.3017703146
0	3424	283025.36287782715	1737.3262243811
0	3437	283852.247695438577	1886.9988803286
0	3446	284512.903025653227	2020.1311334968
0	3451	284930.031542759402	1683.8488865644
0	3464	285874.676430691047	2022.4287352525
0	3469	286286.730241170166	1773.8272155169
0	3478	286942.701649060487	1863.8976244256
0	3491	288021.573314722642	2146.8968840316
0	3500	288914.100679708659	2438.3345684968
0	3505	289255.35538438709	1921.848825831
0	3514	289856.625085696592	1835.0517709739
0	3525	291172.162803495317	2258.0621237867
0	3532	291585.509995277985	1818.925541779
0	3541	292358.020209660768	1810.6208909769
0	3550	293189.922537747784	1823.2927414589
0	3559	293627.752547292053	1496.4673301205
0	3570	294802.127830171972	1944.2440335173
0	3579	295172.109224600732	1659.0344650671
0	3590	296016.994140576585	1743.3885272127
0	3595	296568.780597718446	1747.3385743797
0	3604	297087.326245335876	1682.7406306285
0	3615	297903.167456109091	1886.1733155325
0	3622	298453.802472073599	1648.8319802564
0	3631	299353.360953228561	2174.6411589906
0	3642	300466.253185272231	2442.9293625522
0	3651	301006.421203119694	2123.9466538187
0	3660	301525.729257473737	1888.0099040922
0	3667	302201.089221239105	1700.3643241245
0	3676	303168.829634785666	2110.526994383
0	3687	304170.100028626636	2386.8660458364
0	3696	304945.169635629297	2287.9632961471
0	3705	305899.634643271581	2387.0232644957
0	3714	306565.250637894512	2161.4843018353
0	3723	307668.28530170025	2440.0231304113
0	3734	308251.168792136029	2158.427482238
0	3743	309060.973159270377	2176.4256904833
0	3748	309394.226544303836	1624.9823721126
0	3757	309913.620640290917	1662.4518481549
0	3770	311018.556507769988	1957.5833484996
0	3775	311350.234481273235	1579.2040101718
0	3784	312291.752656409533	1994.6712888312
0	3795	313326.763379713537	2308.2068719435
0	3802	313915.047951042669	2107.2924479842
0	3815	315197.856494039315	2497.4539473653
0	3824	315799.295424157772	2273.7016316503
0	3833	316448.291017580796	2116.3194380701
0	3842	317282.593294233102	2084.7368001938
0	3851	317925.469843670744	2126.174419513
0	3858	318548.707204218972	2100.4161866382
0	3869	319386.791143706087	2104.197849473
0	3876	320104.845466744173	2179.3756230734
0	3887	320991.963868634794	2311.7247708142
0	3892	321380.584064964224	1993.7929212581
0	3905	322296.69594070876	2089.1552024055
0	3910	322698.892645211909	1706.9287765771
0	3921	323444.490748504196	1685.0020418409
0	3930	324250.297748018075	1953.6018073093
0	3937	325028.4850377124	2255.2253372502
0	3946	325550.864068558459	1940.0274475571
0	3959	326548.305411357452	2161.2885088194
0	3964	326850.795290619154	1606.9366999436
0	3975	328008.188720187192	1994.4279225077
0	3982	328684.101132955421	2135.795721598
0	3991	329207.038255361859	1836.6155594587
0	4000	329788.361062388887	1743.5856114607
0	4011	330984.9183321465	2118.8738040626
0	4022	331851.625534985234	2510.0257636048
0	4031	332719.865937251617	2585.4805863462
0	4040	333149.987405212615	2153.9492033422
0	4045	333547.510034171883	1695.8844991866
0	4054	334036.794239189495	1316.9283019379
0	4063	334753.376120142658	1603.38871493
0	4072	335451.090345019494	1494.2350148689
0	4081	336467.135953484122	1937.2040219139
0	4090	337171.304698381592	1972.389350133
0	4103	338133.181279152651	2196.3038641959
0	4112	338511.831437470411	1803.1624185853
0	4119	339302.977652242427	1775.4328255076
0	4128	339676.236720616018	1543.0554414634
0	4137	340221.531940251609	1709.7005027812
0	4144	341213.407494546866	1898.522261437
0	4153	341743.325032945743	1956.3191159628
0	4166	342718.531188787914	2118.0388717912
0	4175	343614.809200912736	2301.2940114364
0	4184	344276.930187921993	2230.8937693946
0	4191	344731.897964514814	2013.3667757269
0	4202	345627.873201901115	2013.0640009884
0	4207	345993.784775119297	1716.8545871973
0	4216	346413.294773921392	1634.7753724549
0	4229	347885.735666519052	2257.8624646179
0	4234	348281.848407536766	1947.4922428373
0	4243	349263.891789363719	2224.0461874288
0	4252	349867.001647828168	1981.2659813091
0	4261	350545.600232994205	1795.0439081993
0	4274	351791.36225092227	2432.0396277588
0	4283	352639.428468653955	2550.875336118
0	4288	353230.949299922236	2242.5271878485
0	4297	353983.759906003275	2192.397655081
0	4306	354510.445748688677	1871.0172800347
0	4317	355356.759307952621	2030.8562510647
0	4326	356069.683691812702	1941.8103652541
0	4333	356511.260011419677	1803.9593554102
0	4342	357250.392722664425	1858.4145935252
0	4351	358207.470972044418	2047.1218836028
0	4360	358925.745707005287	1939.8475939874
0	4373	360077.597293350871	2256.8161929958
0	4378	360610.794572671901	1971.7583093327
0	4389	361639.975016657289	2356.1717969365
0	4398	362337.221187260028	2259.6238939092
0	4405	362843.134927097734	1912.5997238327
0	4414	363754.873182484906	1996.5515961405
0	4425	364995.011099567663	2485.2220653556
0	4432	365509.062075102728	2102.1970414091
0	4441	366474.715272104394	2213.4262740612
0	4454	367533.139818487715	2416.4597367402
0	4459	368302.671635197502	2349.7783783358
0	4470	369106.300836894688	2420.9213028196
0	4477	369414.409857988384	1881.2700395007
0	4486	370291.426429292213	1958.4515788592
0	4495	370951.384163321954	1739.4695633557
0	4500	371398.033907404196	1451.9749004859
0	4515	372640.410873899262	1969.6006345097
0	4524	373249.321938492385	1795.6890290603
0	4531	373731.421710038585	1771.4245547075
0	4544	374915.588707197485	2236.3521446474
0	4553	375795.781302731512	2267.5297818147
0	4560	376639.860595576493	2423.9037252031
0	4569	377137.475115526496	2221.886408329
0	4580	378314.757474046229	2518.9761713147
0	4585	378829.640055913507	2174.0987435449
0	4594	379221.76873362626	1737.974495301
0	4605	380422.408476937591	2107.6510028914
0	4612	381285.93690348792	2285.4258378502
0	4621	381676.336350990487	1791.094359057
0	4634	382919.735534861712	2165.2499669697
0	4639	383422.034351807116	1944.9862007517
0	4648	383827.791203744738	1784.0203148313
0	4659	384944.369799457518	2024.6342645958
0	4666	385566.729602403966	1778.4135272261
0	4675	386177.57189464758	1732.7485626563
0	4684	387206.319590192315	1941.9370135758
0	4693	387982.06291417594	1835.3879245464
0	4706	389200.6587290671	2185.0132300984
0	4711	389542.649286892293	1893.3650678024
0	4724	390774.266683263732	2399.0434458945
0	4733	391530.280625727056	2329.62189666
0	4742	392283.239620551495	2275.9162841365
0	4749	392889.29805527444	2115.0313720107
0	4758	393522.202586755185	1991.9219610281
0	4767	394419.510791916428	2136.2711713649
0	4774	395120.666351169376	2130.9432503767
0	4783	395667.766153765871	1821.7732588761
0	4792	396448.791054356872	1885.2948366199
0	4801	397273.198651475861	1915.802521538
0	4810	398132.438575476437	2021.2575689424
0	4819	398913.026716327324	1966.5295938961
0	4828	399351.27178793776	1647.3140329588
0	4837	400203.784481948271	1719.4095298648
0	4848	401274.092468619377	2218.5913575813
0	4855	401783.114533312649	1946.3393152691
0	4864	402690.615571662814	2093.0730045307
0	4875	403237.125560548187	1847.1683112904
0	4884	403643.857512949065	1395.5219884403
0	4893	404512.787949945808	1685.9989548102
0	4904	405480.298209982024	2204.2699391954
0	4911	406252.045119646968	2240.2591248974
0	4918	406678.215763298826	1814.1646452248
0	4931	407755.149316694618	2274.8511067126
0	4940	408504.669682402194	2248.2170380186
0	4949	409387.844795454324	2368.4566212818
0	4956	409989.45820061493	2234.3088839203
0	4963	410541.378416167603	2036.7087337654
0	4974	411228.554652538181	1840.7098570839
0	4983	411881.326268753067	1774.0042841993
0	4992	412719.233827991441	1973.2054714579
0	5001	413760.360069293559	2311.1153769772
0	5012	414832.170758256719	2505.3901767824
0	5019	415351.740870717943	2146.7410981189
0	5026	415715.025881677896	1669.1722915974
0	5039	416712.122437125102	1879.9516788684
0	5048	417379.880626872212	1891.0212851129
0	5053	417713.877244619683	1708.7438791059
0	5066	418676.051933504671	1963.9294963796
0	5071	419076.754884514988	1696.8742576428
0	5080	419783.214549673751	1863.9992583543
0	5091	420784.85291423279	2108.8009807281
0	5098	421503.919542348042	2054.0605716873
0	5111	422607.88980522196	2405.4782736115
0	5116	422987.401576526493	1972.6744125132
0	5125	423856.69544977139	2054.9314447213
0	5138	425070.663701696352	2462.7738964744
0	5145	425786.62019642073	2305.6003110018
0	5152	426461.101630562947	2150.5521349143
0	5161	427278.13361180018	2207.4699101038
0	5174	428223.206906765731	2337.4989128206
0	5179	428738.596405740859	1986.5659010131
0	5188	429630.268344981628	2212.3530866113
0	5197	430566.477178316596	2343.2702715509
0	5210	431607.670897711101	2522.690124996
0	5217	432119.771142723071	2177.7861940674
0	5228	432960.787575552272	2205.3765413817
0	5233	433562.878448283332	1955.2075505722
0	5246	434135.258985031428	2008.6235856637
0	5255	434595.597982127251	1634.810406575
0	5262	435189.749877294557	1602.8159303125
0	5271	435831.705803191321	1696.4468181599
0	5278	436328.041893057557	1732.4439109303
0	5287	437005.364903016048	1538.6185440235
0	5296	437607.808478688854	1308.4495099727
0	5309	438837.070554541456	2143.0425910279
0	5318	439458.216056088018	2392.3372825608
0	5327	440304.962441464918	2348.2016015332
0	5336	441050.845389626952	2213.7748350855
0	5343	441909.364005178245	2451.1479490902
0	5354	442734.411245724218	2429.4488042593
0	5359	443084.545892290803	2033.7005026639
0	5370	443876.587408315422	1962.8547505941
0	5381	444662.644313508676	1928.2330677845
0	5386	445037.522532837497	1779.2004554998
0	5397	445901.685732370274	1911.4020578563
0	5406	446591.687065735491	1929.0427522268
0	5417	447508.257144084232	2110.3398925625
0	5422	447920.920486282589	1689.0056319069
0	5433	449112.12850827727	2406.0170131736
0	5442	449776.997215580228	2268.740071496
0	5449	450480.409353598985	2109.9136801902
0	5462	451261.654526833478	1996.299795527
0	5467	451751.706710457835	1797.5953375921
0	5480	452914.9893340655	2218.8547809608
0	5489	453634.524697763878	2372.8701709304
0	5494	454098.555498942766	1973.4928681981
0	5505	454707.539509842205	1792.5501757767
0	5512	455368.663116591084	1734.1384188272
0	5525	456477.19781706113	2321.0148948245
0	5530	456880.774674285237	2099.1558910813
0	5539	457286.819303222034	1707.7302267775
0	5550	458490.112589020316	2012.9147719592
0	5559	459196.877526585047	2098.975252267
0	5566	459626.562212873285	1844.6864793543
0	5577	460494.239096436684	1970.9742718376
0	5586	461147.064215317403	1882.3996631429
0	5597	462188.028017012438	2326.9673252944
0	5606	462859.389471262729	2105.7960773818
0	5615	463512.420498859173	2001.7165908124
0	5620	464078.641450591421	1890.613433579
0	5631	464834.960634866765	1975.571163604
0	5642	465578.263244032895	2065.8427451737
0	5647	466175.814679032227	1847.8452315554
0	5660	467094.7055996396	2250.8424045984
0	5667	467678.829287365114	2100.5660433322
0	5678	468710.08334071379	2429.1240328923
0	5683	469090.097518125585	1995.391918486
0	5692	469895.038006827271	2071.1271189619
0	5705	470843.486147420517	2133.4028067067
0	5714	471662.723133852742	2122.5999855436
0	5721	472457.517046434842	2374.2933000438
0	5730	473315.045573283024	2471.5594258625
0	5741	474208.608840918206	2545.8857070655
0	5750	474905.621656542682	2382.8916294035
0	5759	475800.115985702761	2407.7082332689
0	5768	476448.62597887408	2240.0171379559
0	5777	477256.3509142958	2350.7292577531
0	5782	477627.782695507668	1827.6667098049
0	5793	478519.517300790213	2070.8913219161
0	5802	479548.754132632203	2292.4032183364
0	5811	480107.184710400216	2146.1597759742
0	5820	481089.21251739379	2261.7655570619
0	5829	481869.031317438967	2260.5353097897
0	5836	482317.815995262973	1865.3496315703
0	5845	483130.912530887909	1904.0750814602
0	5856	483908.331288071386	1787.5830797944
0	5863	484384.116684459187	1728.434363706
0	5872	485343.275884073265	2027.1292886697
0	5881	486346.87470104549	2215.5847534072
0	5890	486810.868665855415	1821.1639337707
0	5899	487712.148030521386	1934.8188006319
0	5908	488520.022940263191	1844.8053181171
0	5917	488926.622994616665	1466.2557926495
0	5926	489981.58319382932	1904.6794289723
0	5935	490960.116400569714	2065.3321302496
0	5948	492169.248476391696	2382.709176885
0	5957	492883.79132193517	2352.7082510758
0	5966	493715.530253341459	2412.4823683407
0	5975	494419.06200055968	2249.813524168
0	5980	494790.978707838841	1907.1873859037
0	5991	495513.583311857693	1798.0530585162
0	6002	496499.497696151994	2080.4356955923
0	6009	497069.431729568206	2041.8013396673
0	6018	497804.939402779601	2014.4368716516
0	6025	498188.1028380711	1688.6051419191
0	6038	499410.564899398051	2146.661968343
0	6045	499901.714749541171	2006.3559953123
0	6052	500622.933149244674	2111.3851248287
0	6061	501188.17972722467	1777.6148278266
0	6072	502001.267273398153	1823.5232556704
0	6079	502496.508408850095	1737.3377602547
0	6090	503538.995845802165	2079.0855102707
0	6099	504539.333567395843	2348.2858604752
0	6110	505316.095109889321	2295.0212926604
0	6115	505632.461425848342	1872.2517611459
0	6124	506104.474971396885	1497.410423588
0	6133	506826.401707297228	1510.3065974079
0	6142	507628.397245612033	1709.1714621987
0	6153	508670.519366394766	2199.8497556895
0	6160	509216.438469942697	2018.0079774465
0	6169	509735.589441284575	1771.3814412709
0	6180	510521.556017361619	1744.4129652344
0	6189	511023.42306235809	1717.2111378517
0	6196	511708.821296319404	1746.0509858094
0	6205	512365.678930515462	1835.8268324286
0	6214	512901.182620972434	1606.1911527067
0	6225	513668.232958065385	1519.5665021427
0	6234	514610.457246238405	2021.1735766847
0	6241	515172.441676771307	2059.5041668508
0	6252	516174.687807960474	2256.2129924074
0	6259	516861.141578620338	2129.1556166019
0	6270	517684.002228314095	2075.7437167224
0	6281	518547.243488626593	2136.9776716456
0	6286	518859.250648040363	1719.9958769605
0	6297	520131.681057298594	2329.2882111389
0	6304	520737.052087532394	2189.8085989058
0	6315	521473.52029220205	2044.5584766101
0	6322	521833.103419281582	1524.0494063124
0	6333	523290.484312735537	2333.9021614753
0	6340	523733.079318422863	2002.7264134493
0	6349	524630.220840498845	2036.1616968177
0	6362	525594.351520948151	2223.3205131255
0	6371	526461.800545547197	2452.2814560682
0	6378	527198.578215949277	2406.4584008418
0	6387	527986.827610340009	2392.4760893919
0	6396	528562.862238334531	2101.0616927873
0	6403	529272.099163988644	2019.3002534565
0	6414	530068.336783396118	2040.222702641
0	6421	530717.935898434409	1917.0972970314
0	6434	532028.088376577982	2374.9707621988
0	6441	532478.408879321107	1999.0180118009
0	6452	533223.922922043168	1849.8421988916
0	6461	534064.495226880574	2036.4068503026
0	6468	534548.327319463754	1761.8109342176
0	6475	535045.183308888266	1821.2603868451
0	6484	535802.462071459779	1737.9668445792
0	6493	536785.876253899225	1863.6882425286
0	6502	537386.70540335592	1650.7753110956
0	6511	538168.059342121745	1881.9214286283
0	6520	538962.437255121807	1803.4321813378
0	6529	539338.005688274319	1514.5491546951
0	6540	540721.028995513955	2196.4087107684
0	6547	541442.325261700938	2131.5841225907
0	6556	542307.714760210405	2137.9541890696
0	6569	543166.845705080817	2268.200998893
0	6578	543845.831511821637	2095.6886714324
0	6587	544506.149903079534	1931.2052406371
0	6594	544987.944647111038	1821.0989420302
0	6605	546225.831370940471	2379.9998591188
0	6614	546761.054809950331	2254.9049068708
0	6621	547360.300973570013	1982.2135606315
0	6628	547978.692038822958	1752.8606678825
0	6637	548650.323069607878	1889.2682596575
0	6650	549644.910804647991	2266.2937427871
0	6657	550217.901618406215	2023.8964640535
0	6664	550772.492554876992	1979.1548919864
0	6677	551606.393767660522	1961.4829630125
0	6686	552504.769747378343	2195.4486369621
0	6691	553236.20485877622	2379.4016056694
0	6702	553909.684644592964	2303.2908769324
0	6713	554668.913684925103	2164.1439375468
0	6718	555022.156283492261	1653.2987509388
0	6731	556321.265432797411	2350.1181123778
0	6736	556794.530877471009	2125.6171925459
0	6745	557144.207529025191	1656.292879628
0	6756	558196.052363701204	1874.7869309038
0	6767	559007.199657848144	1910.9270914458
0	6772	559389.454869227523	1616.2216593046
0	6785	560472.236592695156	2264.0308233909
0	6794	561187.771680112967	2180.5720222648
0	6799	561605.268662888596	1932.125815982
0	6810	562622.810664866159	2150.574072171
0	6817	563039.559552725444	1851.7878726125
0	6826	563810.198907461056	1761.8903087452
0	6837	564850.626028189474	2051.4890054706
0	6844	565602.176411775911	2175.6268301513
0	6855	566229.887284431645	1930.2754169796
0	6864	566792.911453731397	1718.1708846241
0	6875	568123.726766137445	2271.6874707956
0	6880	568461.222041817421	2083.0939710606
0	6893	569186.01812319834	1933.9345252141
0	6902	570071.640920592511	1947.9141544551
0	6909	570847.923426143864	2268.7927620951
0	6916	571255.996181303674	2069.9780581053
0	6929	572386.712342267895	2315.0714216754
0	6938	573226.964509394059	2331.8696925882
0	6947	574118.169066868762	2429.4923022855
0	6952	574731.956694508011	2345.2443522401
0	6965	575531.806253269354	2304.8417438753
0	6970	575982.19659696337	1864.0275300946
0	6981	576744.694659858982	1912.4047571328
0	6988	577379.600468091707	1847.7942148224
0	6997	577968.43037889343	1733.48162435
0	7010	578996.27415142026	1894.0390208736
0	7017	579388.809491274918	1724.0619011689
0	7024	580234.395458735565	2128.9556988515
0	7033	580891.173840360756	1894.8996889405
0	7046	582084.499986050689	2350.7618780248
0	7055	582957.404191559219	2360.4366429616
0	7064	583594.043859746346	2356.6159876529
0	7069	583948.288120329419	1863.7881342787
0	7078	584994.682838860939	2037.2786473017
0	7087	585762.490928359369	2168.447068613
0	7096	586515.359397791366	2099.2849768605
0	7107	586952.350473683367	1784.3012147583
0	7114	587428.817596798802	1588.4502884466
0	7125	588644.058946240733	2056.0545163695
0	7132	589785.280037764499	2374.3677054998
0	7141	590210.64730240036	2081.7439123057
0	7152	591101.722310576627	2086.7221640423
0	7159	591594.861337915103	1732.5793658383
0	7170	592532.749863993416	2062.6847512554
0	7181	593398.851664178113	2149.7739829123
0	7186	593778.056204784701	1769.3398348521
0	7197	594476.813857024575	1853.0857629608
0	7208	595377.836300991516	1978.9846368134
0	7213	596002.53265388314	1988.6643075384
0	7224	596927.356332074891	2122.9566388763
0	7231	597724.461717903654	2346.6254169121
0	7240	598215.559681272176	2008.7133594789
0	7251	599341.715974174481	2240.2627034113
0	7258	600101.42037193295	2144.242871739
0	7269	600936.152686877217	2262.2002492659
0	7278	601805.810370203148	2429.9633743241
0	7285	602163.726789364632	1949.291102495
0	7294	603104.384921304923	2030.0759391859
0	7303	603916.563803236973	1980.3598720115
1	3149	260566.166203189651	348
1	3158	261464.988266397277	349
1	3165	262031.208783248449	350
1	3176	263049.61443641224	351
1	3183	263855.155907431627	352
1	3194	264685.914617031823	353
1	3203	265427.983481856073	354
1	3210	265983.990675956021	355
1	3217	266298.091746401052	356
1	3226	267424.202863080438	357
1	3235	267926.441051904123	358
1	3244	268913.524725241597	359
1	3255	269513.77787590028	360
1	3262	269933.533875457954	361
1	3273	270803.17353308202	362
1	3284	271634.918378340092	363
1	3291	272262.64035254718	364
1	3302	273001.275148848084	365
1	3309	273434.139485796926	366
1	3316	273807.197502627981	367
1	3329	274889.010035572586	368
1	3336	275427.513629570616	369
1	3345	275992.016861820606	370
1	3352	276537.025877600548	371
1	3361	277632.22791804002	372
1	3370	278240.522124292342	373
1	3379	279451.421196665627	374
1	3388	280134.004378644762	375
1	3401	281288.036653446046	376
1	3406	281669.304176839081	377
1	3417	282428.059024550033	378
1	3424	283025.36287782715	379
1	3437	283852.247695438577	380
1	3446	284512.903025653227	381
1	3451	284930.031542759402	382
1	3464	285874.676430691047	383
1	3469	286286.730241170166	384
1	3478	286942.701649060487	385
1	3491	288021.573314722642	386
1	3500	288914.100679708659	387
1	3505	289255.35538438709	388
1	3514	289856.625085696592	389
1	3525	291172.162803495317	390
1	3532	291585.509995277985	391
1	3541	292358.020209660768	392
1	3550	293189.922537747784	393
1	3559	293627.752547292053	394
1	3570	294802.127830171972	395
1	3579	295172.109224600732	396
1	3590	296016.994140576585	397
1	3595	296568.780597718446	398
1	3604	297087.326245335876	399
1	3615	297903.167456109091	400
1	3622	298453.802472073599	401
1	3631	299353.360953228561	402
1	3642	300466.253185272231	403
1	3651	301006.421203119694	404
1	3660	301525.729257473737	405
1	3667	302201.089221239105	406
1	3676	303168.829634785666	407
1	3687	304170.100028626636	408
1	3696	304945.169635629297	409
1	3705	305899.634643271581	410
1	3714	306565.250637894512	411
1	3723	307668.28530170025	412
1	3734	308251.168792136029	413
1	3743	309060.973159270377	414
1	3748	309394.226544303836	415
1	3757	309913.620640290917	416
1	3770	311018.556507769988	417
1	3775	311350.234481273235	418
1	3784	312291.752656409533	419
1	3795	313326.763379713537	420
1	3802	313915.047951042669	421
1	3815	315197.856494039315	422
1	3824	315799.295424157772	423
1	3833	316448.291017580796	424
1	3842	317282.593294233102	425
1	3851	317925.469843670744	426
1	3858	318548.707204218972	427
1	3869	319386.791143706087	428
1	3876	320104.845466744173	429
1	3887	320991.963868634794	430
1	3892	321380.584064964224	431
1	3905	322296.69594070876	432
1	3910	322698.892645211909	433
1	3921	323444.490748504196	434
1	3930	324250.297748018075	435
1	3937	325028.4850377124	436
1	3946	325550.864068558459	437
1	3959	326548.305411357452	438
1	3964	326850.795290619154	439
1	3975	328008.188720187192	440
1	3982	328684.101132955421	441
1	3991	329207.038255361859	442
1	4000	329788.361062388887	443
1	4011	330984.9183321465	444
1	4022	331851.625534985234	445
1	4031	332719.865937251617	446
1	4040	333149.987405212615	447
1	4045	333547.510034171883	448
1	4054	334036.794239189495	449
1	4063	334753.376120142658	450
1	4072	335451.090345019494	451
1	4081	336467.135953484122	452
1	4090	337171.304698381592	453
1	4103	338133.181279152651	454
1	4112	338511.831437470411	455
1	4119	339302.977652242427	456
1	4128	339676.236720616018	457
1	4137	340221.531940251609	458
1	4144	341213.407494546866	459
1	4153	341743.325032945743	460
1	4166	342718.531188787914	461
1	4175	343614.809200912736	462
1	4184	344276.930187921993	463
1	4191	344731.897964514814	464
1	4202	345627.873201901115	465
1	4207	345993.784775119297	466
1	4216	346413.294773921392	467
1	4229	347885.735666519052	468
1	4234	348281.848407536766	469
1	4243	349263.891789363719	470
1	4252	349867.001647828168	471
1	4261	350545.600232994205	472
1	4274	351791.36225092227	473
1	4283	352639.428468653955	474
1	4288	353230.949299922236	475
1	4297	353983.759906003275	476
1	4306	354510.445748688677	477
1	4317	355356.759307952621	478
1	4326	356069.683691812702	479
1	4333	356511.260011419677	480
1	4342	357250.392722664425	481
1	4351	358207.470972044418	482
1	4360	358925.745707005287	483
1	4373	360077.597293350871	484
1	4378	360610.794572671901	485
1	4389	361639.975016657289	486
1	4398	362337.221187260028	487
1	4405	362843.134927097734	488
1	4414	363754.873182484906	489
1	4425	364995.011099567663	490
1	4432	365509.062075102728	491
1	4441	366474.715272104394	492
1	4454	367533.139818487715	493
1	4459	368302.671635197502	494
1	4470	369106.300836894688	495
1	4477	369414.409857988384	496
1	4486	370291.426429292213	497
1	4495	370951.384163321954	498
1	4500	371398.033907404196	499
1	4515	372640.410873899262	500
1	4524	373249.321938492385	501
1	4531	373731.421710038585	502
1	4544	374915.588707197485	503
1	4553	375795.781302731512	504
1	4560	376639.860595576493	505
1	4569	377137.475115526496	506
1	4580	378314.757474046229	507
1	4585	378829.640055913507	508
1	4594	379221.76873362626	509
1	4605	380422.408476937591	510
1	4612	381285.93690348792	511
1	4621	381676.336350990487	512
1	4634	382919.735534861712	513
1	4639	383422.034351807116	514
1	4648	383827.791203744738	515
1	4659	384944.369799457518	516
1	4666	385566.729602403966	517
1	4675	386177.57189464758	518
1	4684	387206.319590192315	519
1	4693	387982.06291417594	520
1	4706	389200.6587290671	521
1	4711	389542.649286892293	522
1	4724	390774.266683263732	523
1	4733	391530.280625727056	524
1	4742	392283.239620551495	525
1	4749	392889.29805527444	526
1	4758	393522.202586755185	527
1	4767	394419.510791916428	528
1	4774	395120.666351169376	529
1	4783	395667.766153765871	530
1	4792	396448.791054356872	531
1	4801	397273.198651475861	532
1	4810	398132.438575476437	533
1	4819	398913.026716327324	534
1	4828	399351.27178793776	535
1	4837	400203.784481948271	536
1	4848	401274.092468619377	537
1	4855	401783.114533312649	538
1	4864	402690.615571662814	539
1	4875	403237.125560548187	540
1	4884	403643.857512949065	541
1	4893	404512.787949945808	542
1	4904	405480.298209982024	543
1	4911	406252.045119646968	544
1	4918	406678.215763298826	545
1	4931	407755.149316694618	546
1	4940	408504.669682402194	547
1	4949	409387.844795454324	548
1	4956	409989.45820061493	549
1	4963	410541.378416167603	550
1	4974	411228.554652538181	551
1	4983	411881.326268753067	552
1	4992	412719.233827991441	553
1	5001	413760.360069293559	554
1	5012	414832.170758256719	555
1	5019	415351.740870717943	556
1	5026	415715.025881677896	557
1	5039	416712.122437125102	558
1	5048	417379.880626872212	559
1	5053	417713.877244619683	560
1	5066	418676.051933504671	561
1	5071	419076.754884514988	562
1	5080	419783.214549673751	563
1	5091	420784.85291423279	564
1	5098	421503.919542348042	565
1	5111	422607.88980522196	566
1	5116	422987.401576526493	567
1	5125	423856.69544977139	568
1	5138	425070.663701696352	569
1	5145	425786.62019642073	570
1	5152	426461.101630562947	571
1	5161	427278.13361180018	572
1	5174	428223.206906765731	573
1	5179	428738.596405740859	574
1	5188	429630.268344981628	575
1	5197	430566.477178316596	576
1	5210	431607.670897711101	577
1	5217	432119.771142723071	578
1	5228	432960.787575552272	579
1	5233	433562.878448283332	580
1	5246	434135.258985031428	581
1	5255	434595.597982127251	582
1	5262	435189.749877294557	583
1	5271	435831.705803191321	584
1	5278	436328.041893057557	585
1	5287	437005.364903016048	586
1	5296	437607.808478688854	587
1	5309	438837.070554541456	588
1	5318	439458.216056088018	589
1	5327	440304.962441464918	590
1	5336	441050.845389626952	591
1	5343	441909.364005178245	592
1	5354	442734.411245724218	593
1	5359	443084.545892290803	594
1	5370	443876.587408315422	595
1	5381	444662.644313508676	596
1	5386	445037.522532837497	597
1	5397	445901.685732370274	598
1	5406	446591.687065735491	599
1	5417	447508.257144084232	600
1	5422	447920.920486282589	601
1	5433	449112.12850827727	602
1	5442	449776.997215580228	603
1	5449	450480.409353598985	604
1	5462	451261.654526833478	605
1	5467	451751.706710457835	606
1	5480	452914.9893340655	607
1	5489	453634.524697763878	608
1	5494	454098.555498942766	609
1	5505	454707.539509842205	610
1	5512	455368.663116591084	611
1	5525	456477.19781706113	612
1	5530	456880.774674285237	613
1	5539	457286.819303222034	614
1	5550	458490.112589020316	615
1	5559	459196.877526585047	616
1	5566	459626.562212873285	617
1	5577	460494.239096436684	618
1	5586	461147.064215317403	619
1	5597	462188.028017012438	620
1	5606	462859.389471262729	621
1	5615	463512.420498859173	622
1	5620	464078.641450591421	623
1	5631	464834.960634866765	624
1	5642	465578.263244032895	625
1	5647	466175.814679032227	626
1	5660	467094.7055996396	627
1	5667	467678.829287365114	628
1	5678	468710.08334071379	629
1	5683	469090.097518125585	630
1	5692	469895.038006827271	631
1	5705	470843.486147420517	632
1	5714	471662.723133852742	633
1	5721	472457.517046434842	634
1	5730	473315.045573283024	635
1	5741	474208.608840918206	636
1	5750	474905.621656542682	637
1	5759	475800.115985702761	638
1	5768	476448.62597887408	639
1	5777	477256.3509142958	640
1	5782	477627.782695507668	641
1	5793	478519.517300790213	642
1	5802	479548.754132632203	643
1	5811	480107.184710400216	644
1	5820	481089.21251739379	645
1	5829	481869.031317438967	646
1	5836	482317.815995262973	647
1	5845	483130.912530887909	648
1	5856	483908.331288071386	649
1	5863	484384.116684459187	650
1	5872	485343.275884073265	651
1	5881	486346.87470104549	652
1	5890	486810.868665855415	653
1	5899	487712.148030521386	654
1	5908	488520.022940263191	655
1	5917	488926.622994616665	656
1	5926	489981.58319382932	657
1	5935	490960.116400569714	658
1	5948	492169.248476391696	659
1	5957	492883.79132193517	660
1	5966	493715.530253341459	661
1	5975	494419.06200055968	662
1	5980	494790.978707838841	663
1	5991	495513.583311857693	664
1	6002	496499.497696151994	665
1	6009	497069.431729568206	666
1	6018	497804.939402779601	667
1	6025	498188.1028380711	668
1	6038	499410.564899398051	669
1	6045	499901.714749541171	670
1	6052	500622.933149244674	671
1	6061	501188.17972722467	672
1	6072	502001.267273398153	673
1	6079	502496.508408850095	674
1	6090	503538.995845802165	675
1	6099	504539.333567395843	676
1	6110	505316.095109889321	677
1	6115	505632.461425848342	678
1	6124	506104.474971396885	679
1	6133	506826.401707297228	680
1	6142	507628.397245612033	681
1	6153	508670.519366394766	682
1	6160	509216.438469942697	683
1	6169	509735.589441284575	684
1	6180	510521.556017361619	685
1	6189	511023.42306235809	686
1	6196	511708.821296319404	687
1	6205	512365.678930515462	688
1	6214	512901.182620972434	689
1	6225	513668.232958065385	690
1	6234	514610.457246238405	691
1	6241	515172.441676771307	692
1	6252	516174.687807960474	693
1	6259	516861.141578620338	694
1	6270	517684.002228314095	695
1	6281	518547.243488626593	696
1	6286	518859.250648040363	697
1	6297	520131.681057298594	698
1	6304	520737.052087532394	699
1	6315	521473.52029220205	700
1	6322	521833.103419281582	701
1	6333	523290.484312735537	702
1	6340	523733.079318422863	703
1	6349	524630.220840498845	704
1	6362	525594.351520948151	705
1	6371	526461.800545547197	706
1	6378	527198.578215949277	707
1	6387	527986.827610340009	708
1	6396	528562.862238334531	709
1	6403	529272.099163988644	710
1	6414	530068.336783396118	711
1	6421	530717.935898434409	712
1	6434	532028.088376577982	713
1	6441	532478.408879321107	714
1	6452	533223.922922043168	715
1	6461	534064.495226880574	716
1	6468	534548.327319463754	717
1	6475	535045.183308888266	718
1	6484	535802.462071459779	719
1	6493	536785.876253899225	720
1	6502	537386.70540335592	721
1	6511	538168.059342121745	722
1	6520	538962.437255121807	723
1	6529	539338.005688274319	724
1	6540	540721.028995513955	725
1	6547	541442.325261700938	726
1	6556	542307.714760210405	727
1	6569	543166.845705080817	728
1	6578	543845.831511821637	729
1	6587	544506.149903079534	730
1	6594	544987.944647111038	731
1	6605	546225.831370940471	732
1	6614	546761.054809950331	733
1	6621	547360.300973570013	734
1	6628	547978.692038822958	735
1	6637	548650.323069607878	736
1	6650	549644.910804647991	737
1	6657	550217.901618406215	738
1	6664	550772.492554876992	739
1	6677	551606.393767660522	740
1	6686	552504.769747378343	741
1	6691	553236.20485877622	742
1	6702	553909.684644592964	743
1	6713	554668.913684925103	744
1	6718	555022.156283492261	745
1	6731	556321.265432797411	746
1	6736	556794.530877471009	747
1	6745	557144.207529025191	748
1	6756	558196.052363701204	749
1	6767	559007.199657848144	750
1	6772	559389.454869227523	751
1	6785	560472.236592695156	752
1	6794	561187.771680112967	753
1	6799	561605.268662888596	754
1	6810	562622.810664866159	755
1	6817	563039.559552725444	756
1	6826	563810.198907461056	757
1	6837	564850.626028189474	758
1	6844	565602.176411775911	759
1	6855	566229.887284431645	760
1	6864	566792.911453731397	761
1	6875	568123.726766137445	762
1	6880	568461.222041817421	763
1	6893	569186.01812319834	764
1	6902	570071.640920592511	765
1	6909	570847.923426143864	766
1	6916	571255.996181303674	767
1	6929	572386.712342267895	768
1	6938	573226.964509394059	769
1	6947	574118.169066868762	770
1	6952	574731.956694508011	771
1	6965	575531.806253269354	772
1	6970	575982.19659696337	773
1	6981	576744.694659858982	774
1	6988	577379.600468091707	775
1	6997	577968.43037889343	776
1	7010	578996.27415142026	777
1	7017	579388.809491274918	778
1	7024	580234.395458735565	779
1	7033	580891.173840360756	780
1	7046	582084.499986050689	781
1	7055	582957.404191559219	782
1	7064	583594.043859746346	783
1	7069	583948.288120329419	784
1	7078	584994.682838860939	785
1	7087	585762.490928359369	786
1	7096	586515.359397791366	787
1	7107	586952.350473683367	788
1	7114	587428.817596798802	789
1	7125	588644.058946240733	790
1	7132	589785.280037764499	791
1	7141	590210.64730240036	792
1	7152	591101.722310576627	793
1	7159	591594.861337915103	794
1	7170	592532.749863993416	795
1	7181	593398.851664178113	796
1	7186	593778.056204784701	797
1	7197	594476.813857024575	798
1	7208	595377.836300991516	799
1	7213	596002.53265388314	800
1	7224	596927.356332074891	801
1	7231	597724.461717903654	802
1	7240	598215.559681272176	803
1	7251	599341.715974174481	804
1	7258	600101.42037193295	805
1	7269	600936.152686877217	806
1	7278	601805.810370203148	807
1	7285	602163.726789364632	808
1	7294	603104.384921304923	809
1	7303	603916.563803236973	810

