version 2
run Pipelined_3Teachers-3-20190105-10:57:18-13772
attr configname Pipelined_3Teachers
attr datetime 20190105-10:57:18
attr experiment Pipelined_3Teachers
attr inifile ../simulations/omnetpp.ini
attr iterationvars "$0=\"uniform\""
attr iterationvarsf uniform-
attr measurement "$0=\"uniform\""
attr network PipelinedExamSession
attr processid 13772
attr repetition 3
attr replication #3
attr resultdir results
attr runnumber 3
attr seedset 3
param **.teachersNumber 3
param **.answerTimeDistribution "\"uniform\""
param **.minUniform 300
param **.maxUniform 900
param **.scaleLognormal 6.2854
param **.shapeLognormal 0.4724

vector 0 PipelinedExamSession examinationTime:vector ETV
attr source examFinished
vector 1 PipelinedExamSession studentID:vector ETV
attr source student
0	3165	260286.973484326167	2127.7792490087
0	3176	261076.967900153263	2160.2122109849
0	3183	261545.717290090411	1852.4210829288
0	3192	262351.767397206291	1907.3876554146
0	3203	263041.690392047181	1964.7224918939
0	3210	263506.483393488466	1834.5171546098
0	3217	264240.765997068971	1683.2084462978
0	3230	265285.611255280688	2243.9208632335
0	3237	266125.425596069559	2547.6103354711
0	3248	266882.768636941924	2456.659578206
0	3255	267395.633198646843	2110.0219433662
0	3264	268129.522694041967	1951.4053953812
0	3273	268864.689427055433	1981.9207901135
0	3282	269457.422289345428	2013.6044260114
0	3289	269819.730006856858	1650.308132451
0	3298	270869.577931333349	1993.2810264174
0	3311	272012.407479062692	2425.9034349583
0	3320	272900.608858186767	2438.321674196
0	3329	273767.018742905945	2417.1009527519
0	3334	274071.394019527376	2058.9865404647
0	3347	274825.318484287725	1924.709626101
0	3356	275542.033602576719	1775.0148596708
0	3365	276354.327043611573	2020.3078252729
0	3372	277078.308564517664	2252.9900802299
0	3383	277677.231339924054	2135.1977373473
0	3390	278314.836975932138	1960.5099323206
0	3399	278888.486553635465	1647.2025386989
0	3406	279345.837935479375	1668.6065955553
0	3419	280441.233589081111	2058.4256197326
0	3426	281248.210512427631	2185.4713954031
0	3435	281722.615071991476	1834.9036800675
0	3446	282974.391093570756	2533.1575044896
0	3455	283768.184504751133	2472.9344934225
0	3460	284428.191835340129	2248.2785071246
0	3471	285170.524976961332	2196.1338833906
0	3478	285711.707425676304	1943.5229209252
0	3487	286440.470382431539	1846.2901785504
0	3496	287403.465985832753	2027.3630719632
0	3509	288344.625247875245	2089.691483276
0	3514	288752.198395086469	1649.5259280782
0	3527	289658.88764527628	1864.1732289456
0	3536	290370.967612601833	2026.3423647266
0	3543	291074.39152426088	2155.1295129117
0	3550	291496.71649932863	1837.8288540523
0	3559	292205.916990665735	1834.9493780639
0	3572	293269.678036635759	2128.8862159476
0	3579	294070.487785292807	2160.2884059772
0	3590	294850.522862607631	2324.327356182
0	3599	295276.002639485541	2006.3246028498
0	3606	295726.6581610311	1594.8674531188
0	3613	296414.255660539511	1563.7327979319
0	3622	297369.292679987866	2093.2900405023
0	3631	298460.440618637968	2370.7412896212
0	3644	299357.915709866229	2446.5369817335
0	3651	299951.922703720647	2156.9146861788
0	3662	301067.417362751458	2497.7125961334
0	3671	301661.462166532893	2303.5464566667
0	3678	302399.161698203553	2196.8563907314
0	3685	303117.439107690026	2050.0217449386
0	3696	303912.550606112946	2251.0884395801
0	3703	304253.523603267987	1791.0084301606
0	3714	305432.430773880353	2176.2443540152
0	3725	306281.971616623944	2321.0454260465
0	3730	306710.457369592062	2007.0849860553
0	3739	307163.579801050967	1669.1180333029
0	3748	307899.561847373864	1617.5902307499
0	3757	308957.428219495361	2069.9880603701
0	3770	309684.30852550084	2079.9925137777
0	3775	310285.670494241661	1950.6383938249
0	3784	310870.973717607579	1700.0561953057
0	3795	311704.900572309292	2020.5920468085
0	3802	312313.740687444828	1920.9603394847
0	3811	313012.008211389206	1749.4405272882
0	3820	313412.130487756825	1486.0025472008
0	3831	314553.31702893602	2072.8856671136
0	3838	315256.890755658991	2074.8320915736
0	3851	316282.306022476426	2335.5790479574
0	3856	316642.466229619479	1884.9208074622
0	3869	317667.028010962552	2159.7171745263
0	3874	318216.921949060655	1934.6159265842
0	3883	318762.286147708094	1982.502331445
0	3896	319601.457678247264	1934.4296672847
0	3903	320019.109314400724	1595.406689588
0	3914	320968.105157604462	2075.7442879491
0	3923	321846.456031361616	2244.9983531144
0	3928	322456.287186965368	2173.5500367824
0	3937	323096.883798390648	2128.7786407862
0	3946	323844.809037353864	1998.3530059922
0	3957	324892.606675950831	2151.5071843285
0	3968	325765.008889837212	2272.7795444895
0	3973	326454.48738243433	2105.7941501029
0	3982	326885.171053279213	1665.0474050548
0	3995	328070.583082549295	2305.5741927121
0	4000	328464.143738290316	1807.7168338001
0	4013	329559.427722590066	2213.4414630476
0	4020	330319.616712257288	2249.033629708
0	4029	331113.440225087128	2357.8502622899
0	4036	331620.984604395948	2061.5568818059
0	4047	332530.777240963675	2193.2187477127
0	4054	332878.736681677423	1764.1185305547
0	4063	333621.152519155316	1694.9763090815
0	4072	334526.803730707638	1963.3703415748
0	4081	335310.508348094322	1977.2882910445
0	4090	335662.095942674226	1690.7192544546
0	4103	337140.504240570611	2292.5780996215
0	4112	337608.110678521937	2193.9596963581
0	4117	338013.504726905396	1751.7310565338
0	4130	338981.192811112872	1840.6885705423
0	4135	339497.425092011711	1889.3144134898
0	4146	340331.90784668552	1993.3599882759
0	4155	341157.263672305292	2176.0708611924
0	4162	341672.068217396757	1837.4494972173
0	4171	342135.628673806807	1770.1688156929
0	4180	342673.710245685673	1478.6051407456
0	4193	343855.024342797719	2023.1457511894
0	4200	344390.395465493225	2056.1628830619
0	4211	345206.931929709413	2014.781400701
0	4220	345899.501745728799	2044.4774029311
0	4227	346580.058375466638	2029.38431371
0	4234	346891.41298234465	1684.4810526352
0	4247	348107.716400222876	2208.2146544941
0	4254	348511.496723676124	1752.5607347488
0	4261	349136.816836986714	1582.943289075
0	4270	349731.478422973328	1623.7620227505
0	4281	350515.909563610354	1814.6518275607
0	4288	351162.738105794439	1855.8499293867
0	4297	352225.024215783948	2323.9586991258
0	4306	352833.853908721382	2048.1535497587
0	4317	353646.41256644393	2004.9062591046
0	4326	354316.238456033194	1841.356396582
0	4333	354882.258821558231	1665.0200388394
0	4342	355296.13076532262	1499.1912311409
0	4351	356287.457941565687	1779.6468295623
0	4362	357425.013423990482	2275.9096666239
0	4371	358252.230737730885	2223.1362265069
0	4382	359131.967362621824	2340.2716820128
0	4387	359485.331153869654	2004.4899970293
0	4396	359929.475197149465	1567.7988416981
0	4405	360659.436054853747	1527.4686922319
0	4414	361645.600079884777	2115.8287019469
0	4423	362594.278381671781	2226.7399524339
0	4432	363192.683420889104	1938.1810261868
0	4443	364055.631196964557	1918.0240706541
0	4450	364374.11256898197	1506.843728805
0	4461	365161.580030154461	1609.4897927251
0	4470	366008.73423814776	1908.3014949225
0	4481	366883.995549241105	2173.7233190797
0	4490	367571.087017608831	2256.3084037509
0	4495	368176.592681184436	2135.2928575594
0	4506	368894.99900140802	2011.0034521669
0	4515	369441.421375656525	1870.3343580477
0	4524	370549.742130003894	2286.164997099
0	4531	370975.187866017247	2042.9192085285
0	4542	371800.187981268414	1976.8564552534
0	4549	372721.155147906416	2124.5917591732
0	4562	373761.192140914523	2287.8064838704
0	4567	374405.953125050315	2192.7592510823
0	4578	375239.234833745309	2129.433271056
0	4585	375871.88045731748	2110.688316403
0	4598	376993.026822991693	2377.5706948712
0	4607	377746.382136130729	2393.7352031004
0	4614	378426.024165283912	2248.3331656549
0	4623	379200.410431902879	2207.3836089112
0	4630	380014.537429343932	2268.1552932132
0	4639	380712.09641634489	2110.0437016692
0	4652	381706.809847941645	2296.7316483613
0	4659	382075.22606737914	1925.5733402912
0	4666	382741.167879989394	1851.2105173431
0	4679	383654.562690574699	1947.7528426331
0	4686	384264.077170752012	1878.2896578312
0	4695	385025.807286193618	2216.3715530187
0	4702	385738.932160148421	2084.3694695737
0	4715	386681.913733296119	2231.4358860254
0	4724	387405.18190506848	2162.4247604515
0	4729	388017.178380908467	2079.9776101951
0	4738	388582.05500962215	1900.141276326
0	4749	389336.813336284853	1931.6314312164
0	4756	389674.520355323352	1480.6529320311
0	4765	390297.794277872913	1602.6666244492
0	4776	391195.645375829213	1832.1386884432
0	4783	391580.657667852961	1723.011207534
0	4794	392786.199210863583	2142.421430815
0	4801	393553.874156344704	2155.9534408618
0	4810	394301.17631396281	2041.5040490683
0	4823	395356.878316914685	2214.2306691036
0	4830	396128.173793200426	2243.4121769853
0	4841	397049.044926278316	2283.2693350967
0	4850	397693.71080361309	2336.8324866984
0	4855	398083.616407262185	1858.3683391102
0	4864	398747.251045284816	1698.2061190065
0	4873	399519.966602744559	1826.2557991315
0	4882	400100.151071883763	1693.1576568168
0	4891	401068.627475202108	2019.8998981621
0	4900	401883.731742342959	2232.8642200213
0	4909	402516.846273327271	1984.2089270242
0	4922	403538.34710028025	2106.5817927942
0	4927	404071.189836971487	1943.5316733085
0	4936	404719.747370481515	1762.4175864737
0	4949	405877.202724432598	2338.8556241523
0	4956	406350.170556362744	2004.3014477938
0	4967	407420.52442207935	2403.0920458026
0	4976	408111.999627202775	2234.7969027702
0	4981	408688.984434166949	2100.0661491416
0	4990	409337.513430928837	1916.9890088495
0	5001	410191.830599634003	2079.8309724312
0	5010	411259.000027366009	2369.2560131662
0	5017	411976.620620861676	2210.6213620864
0	5026	412771.995890932184	2241.5921489708
0	5037	413461.987641127806	2118.5993774794
0	5046	414275.964753655743	2109.8221945111
0	5057	414964.382893871543	1900.2942899242
0	5062	415566.172309359563	2025.5571628455
0	5073	416350.045782141414	2052.0613359287
0	5080	416706.353910360512	1741.971016489
0	5089	417232.088789390427	1416.0301471129
0	5098	418312.691795127494	1860.0994238164
0	5109	418876.572527317358	1983.3055069204
0	5116	419190.191559540136	1492.9985067341
0	5127	420055.128075834392	1698.0955016334
0	5134	420633.64428039643	1716.8586874846
0	5147	421535.749306529788	1837.0214130264
0	5156	422413.679439900471	2186.026520608
0	5163	423141.438918840168	2154.9719519913
0	5170	423601.620617508916	2065.8713109791
0	5179	424170.188224967597	1756.5087850671
0	5188	425201.502805575756	1932.6222696807
0	5201	426565.905795386089	2450.0126671046
0	5206	427163.105432689218	2158.1431197468
0	5219	428209.622027864708	2351.0620937683
0	5226	428693.5538935941	2127.648098208
0	5237	429506.31990409459	2143.128873501
0	5244	430046.850745473085	1837.2287176084
0	5251	430455.883722240133	1672.2736910451
0	5264	431549.90425603467	2043.5843519401
0	5271	432180.16126421283	1947.9234800208
0	5280	432894.850711338249	2089.3023428041
0	5289	433804.689312865985	2254.7850568313
0	5296	434392.581439157975	1970.0815167278
0	5305	435277.109863981631	1961.1808808986
0	5318	436254.821451287743	2044.0297288354
0	5323	436756.892924895536	1994.4530408364
0	5334	437767.842977726858	2342.7811346948
0	5341	438199.992829794091	1945.1713785063
0	5352	439206.973875453723	2111.7962634657
0	5359	439695.935470797149	1812.2579512652
0	5372	441115.454482985687	2401.4156866819
0	5381	441758.544286200803	2327.2755685262
0	5390	442615.418808208805	2395.383113483
0	5397	443287.046241480884	2171.5917584952
0	5406	443984.835798572776	2226.291512372
0	5417	445067.275861417901	2451.8570532091
0	5424	445712.27152808572	2242.3995859455
0	5433	446778.168254345681	2445.3073858749
0	5442	447558.765006344791	2491.4891449269
0	5449	447982.682415330808	2019.3655881565
0	5458	448562.420219834921	1702.1781358402
0	5469	449590.007729083326	1908.2591115497
0	5478	450241.056035645333	1882.7028438449
0	5487	450952.958713984144	2160.9752857592
0	5496	451356.431009061662	1726.5449368861
0	5507	452151.442171912667	1679.1659091599
0	5512	452623.249285155934	1654.591397848
0	5521	453281.551560061079	1901.865245495
0	5530	453817.173399170888	1665.7312272582
0	5541	455426.333801541505	2441.8561393395
0	5552	456287.384338304428	2495.8533589728
0	5559	456959.871018352015	2298.8584202249
0	5566	457291.545332595734	1800.630478235
0	5575	458264.283423637999	1976.8990853336
0	5584	459042.533630691496	2045.6382061355
0	5593	459492.525421455531	1765.5343745369
0	5602	460340.881339134675	1784.6123082563
0	5611	461112.014122959254	1700.4338392988
0	5620	461857.160621881513	1746.838220302
0	5631	462683.381468709586	1901.6459767241
0	5638	463042.241185996709	1584.9670178723
0	5647	464017.220414523064	1886.29201781
0	5660	465117.292424803628	2101.5292178839
0	5669	465728.825287101819	1824.5534535963
0	5676	466201.09543846923	1637.0070615783
0	5683	467094.921859167545	1977.6294343639
0	5696	468187.850712938263	2459.0254258364
0	5701	468558.215782977669	2026.7011505552
0	5710	469455.095224455027	2054.9039759673
0	5721	470352.74901408705	2164.8983011488
0	5728	471197.03288474123	2216.0888771061
0	5741	471891.280792001663	2160.3326708078
0	5748	472295.986585272504	1844.7750460356
0	5759	473205.886584520368	1939.2440462485
0	5768	473946.974507393344	2055.6937153917
0	5773	474284.883061610191	1936.0870535485
0	5782	475326.112882141052	2120.2262976207
0	5791	475836.627613194316	1889.653105801
0	5800	476769.148435816199	2133.2476878539
0	5809	477191.29999699074	1680.4145284463
0	5822	478449.028379330441	2105.092756357
0	5831	479106.722568254947	2147.4540908821
0	5840	479780.813386570691	2172.1557113808
0	5847	480413.842078903719	1964.8136995733
0	5858	481493.262481642916	2386.539913388
0	5865	482204.643462505221	2423.8300759345
0	5872	482673.425317090034	2029.8706736416
0	5883	483220.68140474151	1727.4189230986
0	5890	483698.427039245173	1310.4583949782
0	5903	485115.014631813422	2321.6366996057
0	5910	485831.020282628045	2193.0567520671
0	5921	486660.745555954084	2168.4998387005
0	5928	487368.075299402729	2253.0606675893
0	5935	488016.446886118531	2018.8283003401
0	5948	489121.826049825207	2461.0804938711
0	5955	489847.247410845042	2315.1358050294
0	5962	490290.08881514895	1965.9758060239
0	5967	490699.57795618105	1577.7519063558
0	5984	492077.573221782253	2072.5337809883
0	5991	492422.216733824492	1638.5497691575
0	5998	493261.58951567489	1832.0654257201
0	6011	494082.193748233871	2004.6205264516
0	6016	494572.7263410576	1685.953084426
0	6029	495572.142164083229	2216.6575330775
0	6038	496379.030940122934	2296.8371918891
0	6045	497142.255986016275	2366.347585246
0	6052	497670.896203536572	2098.7540394533
0	6061	498314.075167151199	1935.0442270283
0	6074	499459.146573068606	2217.3186130822
0	6079	499838.763082819091	1701.8755735829
0	6090	500461.664549633893	1761.3149663899
0	6097	500971.878829551893	1512.7322564833
0	6106	501825.472820922765	1812.9189552739
0	6117	502586.475880304384	1961.7353975773
0	6124	503459.519256977396	1979.3618890923
0	6133	504042.277255235272	2062.5625642017
0	6144	504776.285579055579	2004.2502290569
0	6151	505283.854902628841	1764.058916783
0	6160	506186.622200394082	1999.8595001176
0	6171	507090.678088925812	2171.6479284223
0	6178	507616.06803084727	1821.5598060284
0	6189	508723.531792731988	2243.6386649497
0	6200	509831.610466819289	2543.9914479386
0	6207	510432.27436076853	2275.3009367734
0	6216	511103.082529921118	2140.8932784107
0	6225	511623.396646510843	1791.7861796916
0	6234	512279.264169093255	1611.1864922103
0	6245	513333.797650923985	2191.8147392571
0	6252	513846.391204884308	2219.4222310558
0	6263	514895.688334945622	2419.3546582013
0	6272	515778.923052828792	2445.1254019048
0	6279	516138.51807676259	2110.0013600662
0	6290	517508.378631016273	2612.6902960707
0	6297	517972.47769441459	2193.5546415858
0	6308	518851.269942568649	2235.1502083708
0	6313	519248.325726063956	1739.9470950477
0	6324	520107.860562717576	2082.8498778865
0	6335	520835.036136768792	1983.7661942001
0	6344	521591.785252885927	2031.0748217627
0	6353	522178.158734226633	1831.286875857
0	6360	522600.038007739965	1765.0018709712
0	6367	522944.610867742483	1352.8256148566
0	6376	524031.116041168604	1852.957306942
0	6385	524548.922960786182	1727.3425122723
0	6394	525178.828617185389	1518.6507676262
0	6405	526462.693235417862	2119.6363043971
0	6416	527116.374321654473	2080.2709002513
0	6421	527482.388599589501	1663.9864634257
0	6430	528314.288174221327	1783.7687054649
0	6441	529100.404460029711	1984.0301383752
0	6448	529663.443088671226	1913.7402576394
0	6457	530628.597851889242	2145.1974896248
0	6468	531308.298607729409	2083.7584574707
0	6479	532090.145831834559	2096.3163948152
0	6486	532710.209529893507	1991.0703419242
0	6495	533564.052780345117	2068.4424030595
0	6502	534324.669853225385	2234.5240213908
0	6511	534688.247875962441	1789.7131203208
0	6522	535891.291171917726	2249.0874295123
0	6531	536466.906463494559	2019.140922837
0	6540	536929.637574311379	1804.3928867206
0	6547	537287.278320221264	1328.9079715032
0	6560	538798.80489748906	2311.826077709
0	6569	539542.548748618026	2348.0755446944
0	6576	540263.241009274532	2223.5556330532
0	6587	541056.751559162547	2257.9466616735
0	6596	541685.146946506609	2142.5981978886
0	6601	542095.861856080626	1809.8189576995
0	6610	542416.162176243995	1359.4106170814
0	6619	543473.186818510328	1788.0398720037
0	6632	544483.331118989771	2139.0355386771
0	6637	545131.238531414455	2025.3607084975
0	6648	545891.048329649529	1999.7662893031
0	6659	547054.878242360463	2571.5471233707
0	6668	547747.427996434306	2415.8160339575
0	6675	548418.386654974927	2228.9696166292
0	6684	548936.738638859277	1881.8603964988
0	6691	549599.148095073213	1851.7200986389
0	6704	550948.648235108738	2395.7375138998
0	6709	551318.816989799996	1948.0422525667
0	6720	552260.866882698645	2204.6721105929
0	6729	553150.753827905317	2202.1055927966
0	6738	553843.127367692103	2161.8589775171
0	6745	554728.771032253315	2376.7019312829
0	6758	555751.90723612908	2522.8161860257
0	6765	556232.469193171744	2146.3121663779
0	6776	557043.317138962482	2070.7342918497
0	6783	557761.557389516418	2009.6501533873
0	6790	558347.923951176961	1884.2145788949
0	6801	559267.2088122927	2223.8916733302
0	6810	559936.089921696146	2091.2786896806
0	6817	560861.686925869469	2168.0923593231
0	6826	561529.744823277031	2105.5967657827
0	6835	562210.542975459283	1898.6074872315
0	6848	563553.548300033469	2452.6992583182
0	6857	564338.020888762582	2487.1058997698
0	6864	564973.696964839507	2301.748209307
0	6871	565306.215483136509	1752.667183103
0	6880	565992.608357593451	1654.5874688309
0	6891	567005.516793206367	2014.9342998862
0	6898	567370.923011563751	1662.41876157
0	6911	568569.123676372726	2299.6835891157
0	6920	569167.353393137489	2026.2069197372
0	6927	569924.779026489739	2105.1285887137
0	6938	570793.703007325564	2224.5793309528
0	6943	571145.960083650459	1978.606690513
0	6956	572162.855490110849	2203.9007797837
0	6963	572681.218045530875	1887.5150382053
0	6974	573857.938383193722	2435.9500514343
0	6981	574478.944204095787	2316.0887139849
0	6990	575199.536606948859	2208.3153419662
0	6999	575902.100468566676	2044.162085373
0	7010	576921.2838313077	2411.1843068618
0	7019	577614.904000517016	2407.0384080056
0	7026	578248.24303281497	2202.1537708584
0	7035	578958.973561227357	2037.6897299197
0	7046	579734.34424703013	2119.4402465131
0	7051	580378.37414508689	1895.302423602
0	7064	581412.228304054624	2436.5338276606
0	7071	582181.076399982012	2446.7321529519
0	7078	582866.033345880023	2304.1545194574
0	7091	583776.887647574804	2364.6593435202
0	7100	584599.584944732524	2294.2873405293
0	7107	585063.487526541613	2020.0219309889
0	7116	585745.241344068237	1968.3536964934
0	7123	586207.95560502451	1608.370660292
0	7136	587577.967374259642	2439.5720318891
0	7145	588434.47794928219	2528.5690753721
0	7150	588978.456561500242	2208.4669334348
0	7159	589721.761730080506	2143.7943558209
0	7172	590509.512155223674	2075.0342059415
0	7179	591259.119744971431	1928.9651084226
0	7188	592276.99113367129	2364.968609903
0	7199	592931.414042646101	2421.9018874224
0	7206	593601.627016486636	2196.1571753025
0	7217	594569.299997482485	2272.4046274088
0	7222	594930.887070531062	1999.473027885
0	7227	595391.858251858539	1689.7854703479
0	7242	596611.09401080761	2041.7940133251
0	7249	597146.120203938371	1733.5318327881
0	7258	597679.842382064126	1494.4010674953
0	7267	598733.897272031791	2054.5256337617
0	7276	599416.547552822195	2018.0126605555
0	7285	600025.908986711912	1832.3666675482
0	7298	600981.637854734473	1982.8982896172
0	7305	601863.072158256583	2007.9139643814
0	7316	602660.450709471516	2301.830187114
0	7323	603275.045811524652	2293.4079567902
0	7332	604293.630730547048	2413.4031048976
1	3165	260286.973484326167	350
1	3176	261076.967900153263	351
1	3183	261545.717290090411	352
1	3192	262351.767397206291	353
1	3203	263041.690392047181	354
1	3210	263506.483393488466	355
1	3217	264240.765997068971	356
1	3230	265285.611255280688	357
1	3237	266125.425596069559	358
1	3248	266882.768636941924	359
1	3255	267395.633198646843	360
1	3264	268129.522694041967	361
1	3273	268864.689427055433	362
1	3282	269457.422289345428	363
1	3289	269819.730006856858	364
1	3298	270869.577931333349	365
1	3311	272012.407479062692	366
1	3320	272900.608858186767	367
1	3329	273767.018742905945	368
1	3334	274071.394019527376	369
1	3347	274825.318484287725	370
1	3356	275542.033602576719	371
1	3365	276354.327043611573	372
1	3372	277078.308564517664	373
1	3383	277677.231339924054	374
1	3390	278314.836975932138	375
1	3399	278888.486553635465	376
1	3406	279345.837935479375	377
1	3419	280441.233589081111	378
1	3426	281248.210512427631	379
1	3435	281722.615071991476	380
1	3446	282974.391093570756	381
1	3455	283768.184504751133	382
1	3460	284428.191835340129	383
1	3471	285170.524976961332	384
1	3478	285711.707425676304	385
1	3487	286440.470382431539	386
1	3496	287403.465985832753	387
1	3509	288344.625247875245	388
1	3514	288752.198395086469	389
1	3527	289658.88764527628	390
1	3536	290370.967612601833	391
1	3543	291074.39152426088	392
1	3550	291496.71649932863	393
1	3559	292205.916990665735	394
1	3572	293269.678036635759	395
1	3579	294070.487785292807	396
1	3590	294850.522862607631	397
1	3599	295276.002639485541	398
1	3606	295726.6581610311	399
1	3613	296414.255660539511	400
1	3622	297369.292679987866	401
1	3631	298460.440618637968	402
1	3644	299357.915709866229	403
1	3651	299951.922703720647	404
1	3662	301067.417362751458	405
1	3671	301661.462166532893	406
1	3678	302399.161698203553	407
1	3685	303117.439107690026	408
1	3696	303912.550606112946	409
1	3703	304253.523603267987	410
1	3714	305432.430773880353	411
1	3725	306281.971616623944	412
1	3730	306710.457369592062	413
1	3739	307163.579801050967	414
1	3748	307899.561847373864	415
1	3757	308957.428219495361	416
1	3770	309684.30852550084	417
1	3775	310285.670494241661	418
1	3784	310870.973717607579	419
1	3795	311704.900572309292	420
1	3802	312313.740687444828	421
1	3811	313012.008211389206	422
1	3820	313412.130487756825	423
1	3831	314553.31702893602	424
1	3838	315256.890755658991	425
1	3851	316282.306022476426	426
1	3856	316642.466229619479	427
1	3869	317667.028010962552	428
1	3874	318216.921949060655	429
1	3883	318762.286147708094	430
1	3896	319601.457678247264	431
1	3903	320019.109314400724	432
1	3914	320968.105157604462	433
1	3923	321846.456031361616	434
1	3928	322456.287186965368	435
1	3937	323096.883798390648	436
1	3946	323844.809037353864	437
1	3957	324892.606675950831	438
1	3968	325765.008889837212	439
1	3973	326454.48738243433	440
1	3982	326885.171053279213	441
1	3995	328070.583082549295	442
1	4000	328464.143738290316	443
1	4013	329559.427722590066	444
1	4020	330319.616712257288	445
1	4029	331113.440225087128	446
1	4036	331620.984604395948	447
1	4047	332530.777240963675	448
1	4054	332878.736681677423	449
1	4063	333621.152519155316	450
1	4072	334526.803730707638	451
1	4081	335310.508348094322	452
1	4090	335662.095942674226	453
1	4103	337140.504240570611	454
1	4112	337608.110678521937	455
1	4117	338013.504726905396	456
1	4130	338981.192811112872	457
1	4135	339497.425092011711	458
1	4146	340331.90784668552	459
1	4155	341157.263672305292	460
1	4162	341672.068217396757	461
1	4171	342135.628673806807	462
1	4180	342673.710245685673	463
1	4193	343855.024342797719	464
1	4200	344390.395465493225	465
1	4211	345206.931929709413	466
1	4220	345899.501745728799	467
1	4227	346580.058375466638	468
1	4234	346891.41298234465	469
1	4247	348107.716400222876	470
1	4254	348511.496723676124	471
1	4261	349136.816836986714	472
1	4270	349731.478422973328	473
1	4281	350515.909563610354	474
1	4288	351162.738105794439	475
1	4297	352225.024215783948	476
1	4306	352833.853908721382	477
1	4317	353646.41256644393	478
1	4326	354316.238456033194	479
1	4333	354882.258821558231	480
1	4342	355296.13076532262	481
1	4351	356287.457941565687	482
1	4362	357425.013423990482	483
1	4371	358252.230737730885	484
1	4382	359131.967362621824	485
1	4387	359485.331153869654	486
1	4396	359929.475197149465	487
1	4405	360659.436054853747	488
1	4414	361645.600079884777	489
1	4423	362594.278381671781	490
1	4432	363192.683420889104	491
1	4443	364055.631196964557	492
1	4450	364374.11256898197	493
1	4461	365161.580030154461	494
1	4470	366008.73423814776	495
1	4481	366883.995549241105	496
1	4490	367571.087017608831	497
1	4495	368176.592681184436	498
1	4506	368894.99900140802	499
1	4515	369441.421375656525	500
1	4524	370549.742130003894	501
1	4531	370975.187866017247	502
1	4542	371800.187981268414	503
1	4549	372721.155147906416	504
1	4562	373761.192140914523	505
1	4567	374405.953125050315	506
1	4578	375239.234833745309	507
1	4585	375871.88045731748	508
1	4598	376993.026822991693	509
1	4607	377746.382136130729	510
1	4614	378426.024165283912	511
1	4623	379200.410431902879	512
1	4630	380014.537429343932	513
1	4639	380712.09641634489	514
1	4652	381706.809847941645	515
1	4659	382075.22606737914	516
1	4666	382741.167879989394	517
1	4679	383654.562690574699	518
1	4686	384264.077170752012	519
1	4695	385025.807286193618	520
1	4702	385738.932160148421	521
1	4715	386681.913733296119	522
1	4724	387405.18190506848	523
1	4729	388017.178380908467	524
1	4738	388582.05500962215	525
1	4749	389336.813336284853	526
1	4756	389674.520355323352	527
1	4765	390297.794277872913	528
1	4776	391195.645375829213	529
1	4783	391580.657667852961	530
1	4794	392786.199210863583	531
1	4801	393553.874156344704	532
1	4810	394301.17631396281	533
1	4823	395356.878316914685	534
1	4830	396128.173793200426	535
1	4841	397049.044926278316	536
1	4850	397693.71080361309	537
1	4855	398083.616407262185	538
1	4864	398747.251045284816	539
1	4873	399519.966602744559	540
1	4882	400100.151071883763	541
1	4891	401068.627475202108	542
1	4900	401883.731742342959	543
1	4909	402516.846273327271	544
1	4922	403538.34710028025	545
1	4927	404071.189836971487	546
1	4936	404719.747370481515	547
1	4949	405877.202724432598	548
1	4956	406350.170556362744	549
1	4967	407420.52442207935	550
1	4976	408111.999627202775	551
1	4981	408688.984434166949	552
1	4990	409337.513430928837	553
1	5001	410191.830599634003	554
1	5010	411259.000027366009	555
1	5017	411976.620620861676	556
1	5026	412771.995890932184	557
1	5037	413461.987641127806	558
1	5046	414275.964753655743	559
1	5057	414964.382893871543	560
1	5062	415566.172309359563	561
1	5073	416350.045782141414	562
1	5080	416706.353910360512	563
1	5089	417232.088789390427	564
1	5098	418312.691795127494	565
1	5109	418876.572527317358	566
1	5116	419190.191559540136	567
1	5127	420055.128075834392	568
1	5134	420633.64428039643	569
1	5147	421535.749306529788	570
1	5156	422413.679439900471	571
1	5163	423141.438918840168	572
1	5170	423601.620617508916	573
1	5179	424170.188224967597	574
1	5188	425201.502805575756	575
1	5201	426565.905795386089	576
1	5206	427163.105432689218	577
1	5219	428209.622027864708	578
1	5226	428693.5538935941	579
1	5237	429506.31990409459	580
1	5244	430046.850745473085	581
1	5251	430455.883722240133	582
1	5264	431549.90425603467	583
1	5271	432180.16126421283	584
1	5280	432894.850711338249	585
1	5289	433804.689312865985	586
1	5296	434392.581439157975	587
1	5305	435277.109863981631	588
1	5318	436254.821451287743	589
1	5323	436756.892924895536	590
1	5334	437767.842977726858	591
1	5341	438199.992829794091	592
1	5352	439206.973875453723	593
1	5359	439695.935470797149	594
1	5372	441115.454482985687	595
1	5381	441758.544286200803	596
1	5390	442615.418808208805	597
1	5397	443287.046241480884	598
1	5406	443984.835798572776	599
1	5417	445067.275861417901	600
1	5424	445712.27152808572	601
1	5433	446778.168254345681	602
1	5442	447558.765006344791	603
1	5449	447982.682415330808	604
1	5458	448562.420219834921	605
1	5469	449590.007729083326	606
1	5478	450241.056035645333	607
1	5487	450952.958713984144	608
1	5496	451356.431009061662	609
1	5507	452151.442171912667	610
1	5512	452623.249285155934	611
1	5521	453281.551560061079	612
1	5530	453817.173399170888	613
1	5541	455426.333801541505	614
1	5552	456287.384338304428	615
1	5559	456959.871018352015	616
1	5566	457291.545332595734	617
1	5575	458264.283423637999	618
1	5584	459042.533630691496	619
1	5593	459492.525421455531	620
1	5602	460340.881339134675	621
1	5611	461112.014122959254	622
1	5620	461857.160621881513	623
1	5631	462683.381468709586	624
1	5638	463042.241185996709	625
1	5647	464017.220414523064	626
1	5660	465117.292424803628	627
1	5669	465728.825287101819	628
1	5676	466201.09543846923	629
1	5683	467094.921859167545	630
1	5696	468187.850712938263	631
1	5701	468558.215782977669	632
1	5710	469455.095224455027	633
1	5721	470352.74901408705	634
1	5728	471197.03288474123	635
1	5741	471891.280792001663	636
1	5748	472295.986585272504	637
1	5759	473205.886584520368	638
1	5768	473946.974507393344	639
1	5773	474284.883061610191	640
1	5782	475326.112882141052	641
1	5791	475836.627613194316	642
1	5800	476769.148435816199	643
1	5809	477191.29999699074	644
1	5822	478449.028379330441	645
1	5831	479106.722568254947	646
1	5840	479780.813386570691	647
1	5847	480413.842078903719	648
1	5858	481493.262481642916	649
1	5865	482204.643462505221	650
1	5872	482673.425317090034	651
1	5883	483220.68140474151	652
1	5890	483698.427039245173	653
1	5903	485115.014631813422	654
1	5910	485831.020282628045	655
1	5921	486660.745555954084	656
1	5928	487368.075299402729	657
1	5935	488016.446886118531	658
1	5948	489121.826049825207	659
1	5955	489847.247410845042	660
1	5962	490290.08881514895	661
1	5967	490699.57795618105	662
1	5984	492077.573221782253	663
1	5991	492422.216733824492	664
1	5998	493261.58951567489	665
1	6011	494082.193748233871	666
1	6016	494572.7263410576	667
1	6029	495572.142164083229	668
1	6038	496379.030940122934	669
1	6045	497142.255986016275	670
1	6052	497670.896203536572	671
1	6061	498314.075167151199	672
1	6074	499459.146573068606	673
1	6079	499838.763082819091	674
1	6090	500461.664549633893	675
1	6097	500971.878829551893	676
1	6106	501825.472820922765	677
1	6117	502586.475880304384	678
1	6124	503459.519256977396	679
1	6133	504042.277255235272	680
1	6144	504776.285579055579	681
1	6151	505283.854902628841	682
1	6160	506186.622200394082	683
1	6171	507090.678088925812	684
1	6178	507616.06803084727	685
1	6189	508723.531792731988	686
1	6200	509831.610466819289	687
1	6207	510432.27436076853	688
1	6216	511103.082529921118	689
1	6225	511623.396646510843	690
1	6234	512279.264169093255	691
1	6245	513333.797650923985	692
1	6252	513846.391204884308	693
1	6263	514895.688334945622	694
1	6272	515778.923052828792	695
1	6279	516138.51807676259	696
1	6290	517508.378631016273	697
1	6297	517972.47769441459	698
1	6308	518851.269942568649	699
1	6313	519248.325726063956	700
1	6324	520107.860562717576	701
1	6335	520835.036136768792	702
1	6344	521591.785252885927	703
1	6353	522178.158734226633	704
1	6360	522600.038007739965	705
1	6367	522944.610867742483	706
1	6376	524031.116041168604	707
1	6385	524548.922960786182	708
1	6394	525178.828617185389	709
1	6405	526462.693235417862	710
1	6416	527116.374321654473	711
1	6421	527482.388599589501	712
1	6430	528314.288174221327	713
1	6441	529100.404460029711	714
1	6448	529663.443088671226	715
1	6457	530628.597851889242	716
1	6468	531308.298607729409	717
1	6479	532090.145831834559	718
1	6486	532710.209529893507	719
1	6495	533564.052780345117	720
1	6502	534324.669853225385	721
1	6511	534688.247875962441	722
1	6522	535891.291171917726	723
1	6531	536466.906463494559	724
1	6540	536929.637574311379	725
1	6547	537287.278320221264	726
1	6560	538798.80489748906	727
1	6569	539542.548748618026	728
1	6576	540263.241009274532	729
1	6587	541056.751559162547	730
1	6596	541685.146946506609	731
1	6601	542095.861856080626	732
1	6610	542416.162176243995	733
1	6619	543473.186818510328	734
1	6632	544483.331118989771	735
1	6637	545131.238531414455	736
1	6648	545891.048329649529	737
1	6659	547054.878242360463	738
1	6668	547747.427996434306	739
1	6675	548418.386654974927	740
1	6684	548936.738638859277	741
1	6691	549599.148095073213	742
1	6704	550948.648235108738	743
1	6709	551318.816989799996	744
1	6720	552260.866882698645	745
1	6729	553150.753827905317	746
1	6738	553843.127367692103	747
1	6745	554728.771032253315	748
1	6758	555751.90723612908	749
1	6765	556232.469193171744	750
1	6776	557043.317138962482	751
1	6783	557761.557389516418	752
1	6790	558347.923951176961	753
1	6801	559267.2088122927	754
1	6810	559936.089921696146	755
1	6817	560861.686925869469	756
1	6826	561529.744823277031	757
1	6835	562210.542975459283	758
1	6848	563553.548300033469	759
1	6857	564338.020888762582	760
1	6864	564973.696964839507	761
1	6871	565306.215483136509	762
1	6880	565992.608357593451	763
1	6891	567005.516793206367	764
1	6898	567370.923011563751	765
1	6911	568569.123676372726	766
1	6920	569167.353393137489	767
1	6927	569924.779026489739	768
1	6938	570793.703007325564	769
1	6943	571145.960083650459	770
1	6956	572162.855490110849	771
1	6963	572681.218045530875	772
1	6974	573857.938383193722	773
1	6981	574478.944204095787	774
1	6990	575199.536606948859	775
1	6999	575902.100468566676	776
1	7010	576921.2838313077	777
1	7019	577614.904000517016	778
1	7026	578248.24303281497	779
1	7035	578958.973561227357	780
1	7046	579734.34424703013	781
1	7051	580378.37414508689	782
1	7064	581412.228304054624	783
1	7071	582181.076399982012	784
1	7078	582866.033345880023	785
1	7091	583776.887647574804	786
1	7100	584599.584944732524	787
1	7107	585063.487526541613	788
1	7116	585745.241344068237	789
1	7123	586207.95560502451	790
1	7136	587577.967374259642	791
1	7145	588434.47794928219	792
1	7150	588978.456561500242	793
1	7159	589721.761730080506	794
1	7172	590509.512155223674	795
1	7179	591259.119744971431	796
1	7188	592276.99113367129	797
1	7199	592931.414042646101	798
1	7206	593601.627016486636	799
1	7217	594569.299997482485	800
1	7222	594930.887070531062	801
1	7227	595391.858251858539	802
1	7242	596611.09401080761	803
1	7249	597146.120203938371	804
1	7258	597679.842382064126	805
1	7267	598733.897272031791	806
1	7276	599416.547552822195	807
1	7285	600025.908986711912	808
1	7298	600981.637854734473	809
1	7305	601863.072158256583	810
1	7316	602660.450709471516	811
1	7323	603275.045811524652	812
1	7332	604293.630730547048	813

