version 2
run Pipelined_3Teachers-0-20190105-10:57:17-12600
attr configname Pipelined_3Teachers
attr datetime 20190105-10:57:17
attr experiment Pipelined_3Teachers
attr inifile ../simulations/omnetpp.ini
attr iterationvars "$0=\"uniform\""
attr iterationvarsf uniform-
attr measurement "$0=\"uniform\""
attr network PipelinedExamSession
attr processid 12600
attr repetition 0
attr replication #0
attr resultdir results
attr runnumber 0
attr seedset 0
param **.teachersNumber 3
param **.answerTimeDistribution "\"uniform\""
param **.minUniform 300
param **.maxUniform 900
param **.scaleLognormal 6.2854
param **.shapeLognormal 0.4724

vector 0 PipelinedExamSession examinationTime:vector ETV
attr source examFinished
vector 1 PipelinedExamSession studentID:vector ETV
attr source student
0	3147	260614.372179424415	2019.7699810378
0	3156	261234.325351472968	1825.9413662832
0	3165	261963.879294460664	1829.2932123877
0	3172	262317.576020909498	1606.8581141531
0	3183	263118.049032334263	1789.0087968204
0	3190	263844.80401128533	1662.4968976714
0	3199	264317.683011665965	1533.750171354
0	3210	265490.108958352383	2150.8715364151
0	3217	265849.758794065591	1666.8182676192
0	3226	266969.822753313954	1905.5637658574
0	3237	267862.742363847817	2083.9471399784
0	3244	268164.36429242606	1739.2849205062
0	3253	269258.804186247314	2130.5505313911
0	3262	270222.38152949142	2224.8112600297
0	3275	271295.674350298967	2609.786089696
0	3282	272013.563807448398	2444.4260438439
0	3293	272794.936736114349	2348.1367839966
0	3300	273295.315659977522	1999.6413096786
0	3311	274421.159696392741	2337.2781569604
0	3316	274986.381074599948	2191.4443384856
0	3325	275562.992855859947	1993.5520217288
0	3334	276454.377723997485	2033.2180276047
0	3347	277332.59651670235	2016.7518279981
0	3352	278006.5733204596	1906.7270343192
0	3365	278992.837102850925	2316.3867195603
0	3370	279372.913984442156	2040.3174677398
0	3379	280507.973595662069	2343.0181775708
0	3388	281155.833378620472	2162.9962757695
0	3401	282182.943086698677	2301.7579038162
0	3410	283036.926724808316	2332.6700998005
0	3417	283509.198278747524	1951.5328656882
0	3428	284361.067965393911	2178.1248786952
0	3433	284724.925612891118	1687.9988880828
0	3444	285384.441524650927	1466.5429510642
0	3453	286359.91621096621	1998.8482455723
0	3460	286962.339462200206	2111.3787450828
0	3473	288056.603711703818	2334.3573752325
0	3482	288901.329066278439	2335.270189913
0	3487	289288.851158972856	1891.0094836727
0	3498	289966.86590351167	1910.2621918079
0	3505	290483.649309631464	1582.320243353
0	3516	291568.35200800563	1970.3524325509
0	3523	292128.845355659749	1855.528993858
0	3532	292894.222718942936	1774.3099625688
0	3541	293812.832928635205	1865.8245943487
0	3552	294801.909169647868	2244.3335740361
0	3563	295578.819805663104	2176.6044354066
0	3568	296061.487625073667	1915.3419024311
0	3577	296779.456882970433	1929.7617763281
0	3588	297718.368288595255	2139.5484829322
0	3595	298021.482060570295	1543.884903565
0	3604	299112.354034418267	1976.375115104
0	3613	299685.821517510366	1860.3955975268
0	3622	300169.604878127601	1456.4628025051
0	3631	301269.571317359831	1858.109601913
0	3640	301987.423017667633	1867.7520994563
0	3651	302839.119761623468	1864.0275542624
0	3658	303359.876309568088	1798.1961992104
0	3667	304079.385296674472	1837.8679806367
0	3680	305148.523359792333	2298.2983983122
0	3687	305661.226995522182	1954.0708091576
0	3694	306348.770260904011	2082.5431186706
0	3707	307290.382503066238	2141.8591432739
0	3714	307828.736555390086	1986.0013299622
0	3725	309080.728272115838	2546.6076739132
0	3732	309813.572269119349	2523.1897660531
0	3741	310516.796903684762	2326.8476079684
0	3750	311402.532300353077	2321.8040282372
0	3761	312439.177697477889	2495.8682920318
0	3770	313158.126786584061	2426.985064242
0	3775	313507.361433981013	1942.3435188364
0	3786	314254.870743630481	1815.6930461526
0	3793	314744.780973717597	1586.6541871335
0	3802	315432.00512481856	1514.7159850225
0	3811	316093.295225780484	1730.8650628198
0	3820	316674.80812584984	1753.0090731103
0	3829	317633.938143868025	1889.4895491656
0	3838	318723.883597226839	2104.1904479731
0	3847	319117.039881320695	2002.2759852
0	3858	320388.896161504115	2412.2514076531
0	3869	321157.454842748146	2316.3410935085
0	3874	321546.140045626115	1843.5270488262
0	3883	322281.853100191828	1744.1595254
0	3896	323572.944816900443	2415.4899741523
0	3901	323927.084606140878	2010.6330967974
0	3914	324893.103651562731	2137.3963926919
0	3919	325251.041381293933	1678.0965643935
0	3930	326599.812135379787	2355.3576406091
0	3937	327062.480171537052	2169.3765199743
0	3946	327575.426822667968	1791.3631879259
0	3955	328385.195907298502	1763.1835171022
0	3966	329228.358141565722	2022.4317208864
0	3973	329819.821363175315	2026.04261823
0	3982	330549.006210314137	1867.2500734683
0	3993	331069.688317878199	1573.6572301481
0	4004	331772.518408019123	1686.263443809
0	4013	332586.571556562585	1925.3611867782
0	4022	333270.083697605905	2068.9860426821
0	4027	333583.267879067016	1810.7494710479
0	4038	334463.651936547857	1877.0803799853
0	4045	335138.866855669793	1868.7831580639
0	4054	336066.551568685126	2237.4117958825
0	4065	336604.75396905097	2078.6498234142
0	4072	336971.040235413265	1596.5413605329
0	4083	338040.961449919295	1930.6570976973
0	4092	338533.587243966785	1801.1290906928
0	4099	339170.533612836179	1638.0859734491
0	4108	339709.694799128947	1634.0230086353
0	4117	340561.305373208625	1757.2772623971
0	4128	341590.443970123333	2044.0633135848
0	4139	342641.153772734133	2430.9882360511
0	4146	343461.454066867036	2529.3580343015
0	4153	343762.17861017215	1954.5972276013
0	4162	344880.8198492043	2239.6660764702
0	4171	345730.575641384377	2254.6332577709
0	4182	346522.842554049595	2184.5688736998
0	4191	347331.8466451485	2118.5885498766
0	4202	348189.708339516102	2081.2059361953
0	4211	348869.757235469325	2248.1197095942
0	4216	349218.076437106384	1834.0342146344
0	4225	349685.688821598916	1495.9804820828
0	4234	350157.347041508211	1287.5898060389
0	4245	350770.558000495687	1278.4333476797
0	4252	351331.605103751674	1406.6425827798
0	4265	352327.701708348498	1943.7153670471
0	4270	352963.511147908897	1971.268965723
0	4281	353922.746171616048	2116.7382795364
0	4288	354404.807579051734	2077.1058707032
0	4301	355160.300046019286	1985.8800417278
0	4310	355777.240501111403	1764.454250643
0	4315	356119.486999511748	1607.3862161022
0	4326	357080.960197839916	1920.6601518206
0	4335	357798.691473668471	2021.4509725571
0	4346	358749.994479864866	2203.866218403
0	4353	359572.655997611613	2170.2006495092
0	4362	360287.126863421903	2374.5471598115
0	4373	361320.282398443699	2570.2879185788
0	4378	361839.009176194698	2261.9912005495
0	4391	362606.331349583373	2136.9041201659
0	4398	363125.278450408981	1804.9960519653
0	4405	363504.420399153636	1583.5000997409
0	4416	364366.332411859215	1760.0010622758
0	4423	364724.828443257169	1487.8496048972
0	4432	365624.534102110222	1789.9730856065
0	4441	366089.859794871912	1646.8660939951
0	4454	367325.130329048291	2071.0244047455
0	4463	367990.523498458818	2199.0912769921
0	4472	368658.243552362577	2215.5520877335
0	4477	369370.060779014633	2044.9304499663
0	4488	370276.09672760594	2285.5732291471
0	4495	370921.185984090002	2262.9424317274
0	4504	371686.016106884958	2141.6914716829
0	4513	372384.6422099043	1960.4835933074
0	4522	373169.414134556459	1963.6402353644
0	4533	374059.718180168452	2052.1258631721
0	4540	374582.869430864262	1716.7858818546
0	4549	375211.659786617416	1483.6059717927
0	4558	376488.129296014118	1933.6362040602
0	4571	377498.662523366544	2388.60186073
0	4578	378065.414894605089	2068.2257034816
0	4585	378708.521075220812	1896.0654032417
0	4594	379831.117608351667	2332.4550849851
0	4605	380465.416446374763	2266.1249882542
0	4616	381639.728065487032	2612.0297349058
0	4625	382351.014494989102	2428.1819669064
0	4632	382797.948182607104	2037.9085861612
0	4641	383561.769169801881	1922.0411043148
0	4652	384575.940136844327	2224.9256418552
0	4661	385165.675110742485	2191.3395114709
0	4668	385762.049810215866	2039.7636385169
0	4677	386553.8590206765	1977.9188838322
0	4684	386937.30263728652	1771.627526544
0	4693	387775.756014743856	1843.1779474486
0	4702	388762.314856331832	2023.1958119664
0	4713	389676.528602605722	2052.4156716652
0	4724	390417.72548574958	1987.8996195272
0	4729	390739.662079000883	1573.7094337586
0	4738	391326.449269847981	1391.242999211
0	4747	392172.650116123296	1754.9246303737
0	4758	392927.485279552676	1954.961990146
0	4765	393690.844625886567	1891.6708645876
0	4778	394656.935203168579	2387.3097628355
0	4787	395515.838226210364	2385.0316516589
0	4794	395966.07715571303	1949.74025907
0	4803	396420.7261977252	1763.7909945566
0	4812	397104.549258342051	1588.7110321317
0	4821	397820.440942654424	1714.5665922202
0	4832	398795.019070850722	2365.1490370743
0	4839	399417.360461689569	2131.0488961637
0	4846	399928.522204561196	1919.1221161745
0	4857	401198.594171181358	2403.5751003306
0	4864	401713.048959709741	2045.4296012409
0	4877	402515.255378047041	2009.1103632934
0	4886	403339.895329624451	2071.7700025532
0	4891	403688.718362851105	1719.6526507381
0	4900	404242.925709765441	1727.6703317184
0	4909	404895.497039705552	1555.6017100811
0	4920	405851.78296579983	2018.6772323214
0	4927	406238.597653387151	1738.6954669375
0	4940	406909.944159351326	1662.9021970555
0	4947	407368.543815566264	1414.6662059706
0	4958	408278.394574346058	1923.6914535519
0	4963	408939.73207985986	2029.7879205085
0	4976	409788.756039831825	2369.7978307027
0	4981	410294.038546225094	2015.643971879
0	4990	410894.503108458631	1801.1059524491
0	5003	412074.514896981456	2285.7588571496
0	5012	412861.678034579419	2336.5720474161
0	5017	413196.070405840911	1934.2315246817
0	5022	413539.324058638923	1464.8091616575
0	5037	414939.392735855692	2077.7147012763
0	5046	415490.258261421734	1779.6623719856
0	5055	416285.136886546427	1964.2586309463
0	5066	417115.489345416465	2065.579530783
0	5071	417768.776367651337	2144.8539965786
0	5084	418693.35082224574	2368.2649454568
0	5091	419246.442355262153	2130.9530098457
0	5100	420024.504857417234	2071.1275155656
0	5111	421132.304863678329	2438.9540414326
0	5116	421435.396641958543	2020.2747933101
0	5127	422559.275009064042	2310.7171920128
0	5136	423285.548461647742	2153.2435979694
0	5143	424092.460611602329	2243.661039602
0	5154	424521.894800104239	1821.3907815982
0	5163	425325.986170582511	1794.3577865604
0	5172	426179.969352716618	2042.2641667072
0	5183	426896.216781344303	2243.1144287344
0	5190	427556.344500649759	2040.9719198942
0	5201	428425.491187814662	2231.5959679429
0	5208	428879.641177179331	1983.424395835
0	5217	429932.33873695139	2158.203578135
0	5228	430845.44808003124	2419.9568922166
0	5237	431570.786612620616	2321.1613272317
0	5244	432066.548390407154	2060.4769666214
0	5251	432488.991625607053	1643.5435455758
0	5264	433694.22717145648	2123.4405588359
0	5269	434173.185824090654	1816.6431836318
0	5282	435320.17698814165	2185.796287749
0	5287	435734.029159415552	2039.8019879591
0	5298	436579.327517934183	1998.1970426627
0	5305	437145.469347294459	1825.2923591528
0	5314	437917.659444082568	1984.9575790577
0	5327	439118.331991229246	2418.1224667467
0	5332	439503.235879959578	2025.6721360143
0	5343	440455.632071290204	2215.5446740799
0	5350	441047.478342102879	1929.1463508736
0	5361	441748.75690410849	1731.9632375613
0	5372	442421.458455082069	1839.87190607
0	5377	442993.095769174437	1842.4877137877
0	5388	443957.6986279339	2166.3829699159
0	5395	444444.590269820805	2023.1318147387
0	5408	445658.629242656793	2377.5714674033
0	5417	446236.635655118193	2197.6788767148
0	5422	446572.265565767925	1700.1394907478
0	5431	447479.192363703664	1820.5631210469
0	5440	448179.062870889943	1942.4272157718
0	5449	449109.624597709667	2047.372833034
0	5458	449880.071900971275	1966.692267498
0	5471	451099.387242039706	2323.8508807495
0	5480	451987.67864308324	2477.1458253264
0	5485	452519.547085091512	2169.094224181
0	5496	453365.251175081398	2265.8639330417
0	5503	453849.080764967989	1861.4021218847
0	5516	455100.355124892707	2294.5940941572
0	5525	455967.324637295718	2514.6373977419
0	5532	456577.720287675078	2231.7836471368
0	5539	456908.422548417042	1808.0674235243
0	5548	457601.358849322464	1634.0342120267
0	5561	458981.919052032793	2375.7944944315
0	5566	459305.053397314662	1858.2315349951
0	5579	460490.527930716092	2247.589107044
0	5588	461332.417717622632	2350.4986655898
0	5595	461836.271547060499	1975.9670629632
0	5602	462428.74593255114	1938.218001835
0	5613	463408.251864183733	2075.8341465611
0	5620	463887.164278049061	1818.2581130415
0	5631	464798.03689951081	2078.375190217
0	5642	465586.364982510025	2074.6898090467
0	5651	466404.450716497416	2033.3983553108
0	5656	466745.761894667561	1876.5493093058
0	5667	467866.515868390019	2280.15088588
0	5674	468500.891420524607	2096.4407040272
0	5687	469281.021608272607	2153.144867532
0	5692	470017.684368789236	2003.2969353721
0	5705	470793.777846777851	2048.2145786751
0	5712	471678.06906402115	2397.0474557485
0	5723	472513.017356582025	2442.8761132993
0	5728	472920.894529111722	2127.1166823339
0	5737	473444.69833835032	1766.1672980525
0	5746	474389.768011914606	1876.7506553326
0	5757	475251.072643417904	2173.5889712814
0	5764	475683.134960476348	1906.672468828
0	5777	476866.869619209359	2278.2435034867
0	5784	477442.251531500409	2019.9566711672
0	5791	477823.142718197818	1727.1114401054
0	5800	479147.942723985802	2281.0731047764
0	5811	479639.69898764048	1960.3604385629
0	5820	480591.861013742204	2033.4688328672
0	5829	481092.271786462556	1795.9830205422
0	5840	482351.448543090414	2587.0915305801
0	5845	482871.67628821921	2265.7711508218
0	5854	483543.665995728265	2055.7139986195
0	5863	484217.618544912007	1866.1700018216
0	5872	485152.087286207866	1900.7535976823
0	5883	485933.218125952449	2060.9395173378
0	5892	486716.376439109486	2046.7932870146
0	5903	487758.451151708183	2314.5906257909
0	5912	488611.830255109859	2314.938287437
0	5917	489128.3909354825	2097.1341296565
0	5930	490089.845268381802	2331.3941166736
0	5935	490638.125879410697	2026.2956243008
0	5944	490946.167537244079	1510.0379752927
0	5953	491682.875272398857	1593.0300040171
0	5962	492759.987538866741	1907.4069927447
0	5975	493336.228686338334	1989.9504178204
0	5982	493945.182009693279	1789.3122444861
0	5991	494787.100195605351	1889.1185330227
0	6000	495558.340861508666	2222.1121751703
0	6011	496410.503918118818	2211.2280169968
0	6016	496995.999632868959	2143.9434578642
0	6027	497763.233755342706	2072.4040183704
0	6038	498741.175616439476	2330.6716983207
0	6045	499110.692491242706	1841.684902925
0	6054	499622.44943082337	1708.9867059141
0	6061	500493.981682229831	1752.8060657904
0	6070	501048.378249630376	1860.5769891758
0	6081	501958.917892165527	1898.9112110808
0	6088	502271.487931301862	1562.0894101448
0	6097	502979.418073967144	1449.0665595979
0	6106	504168.530152458743	2064.1564616002
0	6115	504814.335895422892	1990.8277584706
0	6124	505528.358732583047	1806.0353050008
0	6137	506720.919961156369	2228.1279240735
0	6146	507590.044141933367	2345.3080326319
0	6155	508448.690096056134	2457.493250398
0	6162	509042.9420372006	2322.0220760442
0	6169	509482.371926447421	1892.3277845141
0	6174	510029.292460111946	1580.6023640558
0	6191	511206.444562599108	1931.983530242
0	6198	512072.755074128554	1900.8048653137
0	6205	512536.12670693551	1781.3021063805
0	6214	513165.529922163159	1959.0853595641
0	6227	514122.377728298352	2036.9781982619
0	6232	514498.754140734718	1681.7211755086
0	6241	515064.272920321719	1774.2596226744
0	6250	516061.811289796652	1939.4335614983
0	6261	516743.467392493086	1793.1756535079
0	6268	517058.031017426448	1486.2581259571
0	6277	517962.110256683128	1714.313478861
0	6290	518949.919584486681	1965.5966382008
0	6297	519448.279899777892	1905.8873612434
0	6304	519907.659432152334	1673.9921357017
0	6317	520986.542386701379	2036.6228022147
0	6322	521440.210664179225	1608.7675534654
0	6335	522352.212370187093	2212.4502290972
0	6340	522838.589901337449	1852.0475146361
0	6349	523500.546017987703	1719.7730263229
0	6360	524433.553361892749	2081.3409917057
0	6367	525099.517924524892	1889.6204441786
0	6376	525676.387259177912	1737.4038279522
0	6385	526310.047008376617	1648.0947408825
0	6398	527138.3666615468	1765.1654323563
0	6405	527981.262684194419	1992.2139305156
0	6416	528796.664268896032	2008.2721971441
0	6423	529114.789192378569	1976.4225308318
0	6434	530507.708514109302	2490.0318701752
0	6439	530918.977297190625	2122.3130282946
0	6452	532060.160094732467	2417.4522582907
0	6459	532598.952989978764	2091.2444758695
0	6470	533701.246419176507	2355.9911909513
0	6479	534439.533252222511	2379.37315749
0	6484	534978.284422773915	2162.0948097669
0	6497	535803.266689041677	2102.0202698652
0	6504	536683.66936733951	2244.136115117
0	6513	537386.338713252965	2182.1048859973
0	6520	537858.028584485922	2054.7618954442
0	6533	539107.702143536929	2405.6849408895
0	6542	539722.448384156499	2190.1635162067
0	6549	540494.564404198948	2241.7661507148
0	6558	541359.199028369088	2251.4968848322
0	6565	541797.273081913639	2074.8246977571
0	6578	542683.400926552762	2077.1425641607
0	6583	543405.963702499916	1968.6922280118
0	6596	544225.766070792501	2297.7558773942
0	6605	544739.555061981131	2056.1541354284
0	6614	545597.130065364812	2033.4961884655
0	6619	545995.265339920346	1769.4992691278
0	6632	547314.299012627502	2574.7439506464
0	6639	548144.590193778326	2547.4601284135
0	6646	548535.444223182325	2112.2104170732
0	6655	549354.295400809546	2039.996388182
0	6664	549852.561972755988	1656.7623075563
0	6673	550410.246932320346	1570.3809034545
0	6682	551191.612926358407	1760.7285752892
0	6695	552087.846444966321	1819.6543310769
0	6702	552701.083893561785	1907.6815210283
0	6709	553199.955046316658	1721.87291421
0	6718	554188.195394491826	2100.3489495255
0	6731	555340.889822132936	2366.151132714
0	6740	556218.326865462637	2399.8493225779
0	6747	556638.984475750527	2188.9581356663
0	6756	557537.780877901292	2196.8910557684
0	6767	558583.81135063251	2365.4844851699
0	6772	558960.623874049685	2063.7979223393
0	6785	559990.58906659489	2201.0296134744
0	6790	560409.935869602537	1826.12451897
0	6799	561262.854551849938	2029.1275033727
0	6812	562383.560679433919	2392.971612839
0	6819	562837.621368141897	1973.3584059868
0	6826	563574.756608298101	1874.2299932521
0	6837	564291.932812007196	1908.3721325733
0	6844	564656.832126807473	1404.578315746
0	6855	565903.905918309517	2082.6207008678
0	6866	566770.392278675041	2174.0502079949
0	6873	567179.278072295762	1717.0505380724
0	6880	567645.267910603485	1585.1114998106
0	6889	568344.730512611619	1574.3382339366
0	6900	569362.0802014601	2053.4724205267
0	6909	569880.169258033908	1967.7557248157
0	6916	570318.51202924741	1680.2781729028
0	6925	571041.330277780123	1641.3161620963
0	6938	572499.937428021855	2419.5311571937
0	6947	573392.592461407236	2625.3455868457
0	6954	573754.986967658675	2128.390574595
0	6961	574409.182664053567	1909.2452360317
0	6972	575305.483573023282	1912.891111616
0	6981	576124.84843125572	2051.8669741228
0	6988	576486.99551029136	1575.0986976083
0	6997	576963.706063572369	1496.2078173179
0	7006	577944.203902781061	1641.0813552327
0	7017	578680.032903794251	2056.6474116873
0	7024	579159.525092644669	1776.6401123721
0	7033	579966.811731224932	1778.4856617451
0	7042	580961.608937010221	1919.2095423583
0	7053	581921.409700624697	2282.8559439629
0	7062	582592.007244005852	2283.2891806494
0	7069	583249.125697463804	2050.0953380484
0	7078	583842.826479021513	1784.5483375713
0	7087	584785.744262114221	2066.4379872847
0	7098	585798.703638883362	2212.6219347585
0	7107	586566.34887834085	2244.7969478555
0	7114	587349.567770864869	2172.7788244374
0	7123	588001.776339579428	1982.323539583
0	7136	589291.331809619495	2462.2492326424
0	7141	589785.351096466237	2147.0356025733
0	7154	590843.012019060606	2408.4659081418
0	7163	591624.425471574122	2333.0936619546
0	7168	592152.36181262886	2071.3395517319
0	7179	592964.429319743121	2121.4173006825
0	7188	593436.459328886176	1812.0338573121
0	7195	593822.576469462419	1509.8250827752
0	7204	594746.01116906857	1732.3288458399
0	7213	595690.705782920176	1910.5967405252
0	7222	596663.329364173169	2343.6868909746
0	7231	597188.88038671581	2003.9270804264
0	7240	597915.567380748744	1897.6550498977
0	7253	598839.588273223545	2129.8760861624
0	7262	599620.233199792038	2333.9753773995
0	7267	599939.177956944387	1863.7851109263
0	7280	601245.376229798477	2405.7879565749
0	7285	601606.810198864024	1986.576999072
0	7298	602616.812586737853	2155.9746400919
0	7305	603448.290391266402	2202.9141614679
0	7316	604219.634644920063	2204.2939061299
1	3147	260614.372179424415	348
1	3156	261234.325351472968	349
1	3165	261963.879294460664	350
1	3172	262317.576020909498	351
1	3183	263118.049032334263	352
1	3190	263844.80401128533	353
1	3199	264317.683011665965	354
1	3210	265490.108958352383	355
1	3217	265849.758794065591	356
1	3226	266969.822753313954	357
1	3237	267862.742363847817	358
1	3244	268164.36429242606	359
1	3253	269258.804186247314	360
1	3262	270222.38152949142	361
1	3275	271295.674350298967	362
1	3282	272013.563807448398	363
1	3293	272794.936736114349	364
1	3300	273295.315659977522	365
1	3311	274421.159696392741	366
1	3316	274986.381074599948	367
1	3325	275562.992855859947	368
1	3334	276454.377723997485	369
1	3347	277332.59651670235	370
1	3352	278006.5733204596	371
1	3365	278992.837102850925	372
1	3370	279372.913984442156	373
1	3379	280507.973595662069	374
1	3388	281155.833378620472	375
1	3401	282182.943086698677	376
1	3410	283036.926724808316	377
1	3417	283509.198278747524	378
1	3428	284361.067965393911	379
1	3433	284724.925612891118	380
1	3444	285384.441524650927	381
1	3453	286359.91621096621	382
1	3460	286962.339462200206	383
1	3473	288056.603711703818	384
1	3482	288901.329066278439	385
1	3487	289288.851158972856	386
1	3498	289966.86590351167	387
1	3505	290483.649309631464	388
1	3516	291568.35200800563	389
1	3523	292128.845355659749	390
1	3532	292894.222718942936	391
1	3541	293812.832928635205	392
1	3552	294801.909169647868	393
1	3563	295578.819805663104	394
1	3568	296061.487625073667	395
1	3577	296779.456882970433	396
1	3588	297718.368288595255	397
1	3595	298021.482060570295	398
1	3604	299112.354034418267	399
1	3613	299685.821517510366	400
1	3622	300169.604878127601	401
1	3631	301269.571317359831	402
1	3640	301987.423017667633	403
1	3651	302839.119761623468	404
1	3658	303359.876309568088	405
1	3667	304079.385296674472	406
1	3680	305148.523359792333	407
1	3687	305661.226995522182	408
1	3694	306348.770260904011	409
1	3707	307290.382503066238	410
1	3714	307828.736555390086	411
1	3725	309080.728272115838	412
1	3732	309813.572269119349	413
1	3741	310516.796903684762	414
1	3750	311402.532300353077	415
1	3761	312439.177697477889	416
1	3770	313158.126786584061	417
1	3775	313507.361433981013	418
1	3786	314254.870743630481	419
1	3793	314744.780973717597	420
1	3802	315432.00512481856	421
1	3811	316093.295225780484	422
1	3820	316674.80812584984	423
1	3829	317633.938143868025	424
1	3838	318723.883597226839	425
1	3847	319117.039881320695	426
1	3858	320388.896161504115	427
1	3869	321157.454842748146	428
1	3874	321546.140045626115	429
1	3883	322281.853100191828	430
1	3896	323572.944816900443	431
1	3901	323927.084606140878	432
1	3914	324893.103651562731	433
1	3919	325251.041381293933	434
1	3930	326599.812135379787	435
1	3937	327062.480171537052	436
1	3946	327575.426822667968	437
1	3955	328385.195907298502	438
1	3966	329228.358141565722	439
1	3973	329819.821363175315	440
1	3982	330549.006210314137	441
1	3993	331069.688317878199	442
1	4004	331772.518408019123	443
1	4013	332586.571556562585	444
1	4022	333270.083697605905	445
1	4027	333583.267879067016	446
1	4038	334463.651936547857	447
1	4045	335138.866855669793	448
1	4054	336066.551568685126	449
1	4065	336604.75396905097	450
1	4072	336971.040235413265	451
1	4083	338040.961449919295	452
1	4092	338533.587243966785	453
1	4099	339170.533612836179	454
1	4108	339709.694799128947	455
1	4117	340561.305373208625	456
1	4128	341590.443970123333	457
1	4139	342641.153772734133	458
1	4146	343461.454066867036	459
1	4153	343762.17861017215	460
1	4162	344880.8198492043	461
1	4171	345730.575641384377	462
1	4182	346522.842554049595	463
1	4191	347331.8466451485	464
1	4202	348189.708339516102	465
1	4211	348869.757235469325	466
1	4216	349218.076437106384	467
1	4225	349685.688821598916	468
1	4234	350157.347041508211	469
1	4245	350770.558000495687	470
1	4252	351331.605103751674	471
1	4265	352327.701708348498	472
1	4270	352963.511147908897	473
1	4281	353922.746171616048	474
1	4288	354404.807579051734	475
1	4301	355160.300046019286	476
1	4310	355777.240501111403	477
1	4315	356119.486999511748	478
1	4326	357080.960197839916	479
1	4335	357798.691473668471	480
1	4346	358749.994479864866	481
1	4353	359572.655997611613	482
1	4362	360287.126863421903	483
1	4373	361320.282398443699	484
1	4378	361839.009176194698	485
1	4391	362606.331349583373	486
1	4398	363125.278450408981	487
1	4405	363504.420399153636	488
1	4416	364366.332411859215	489
1	4423	364724.828443257169	490
1	4432	365624.534102110222	491
1	4441	366089.859794871912	492
1	4454	367325.130329048291	493
1	4463	367990.523498458818	494
1	4472	368658.243552362577	495
1	4477	369370.060779014633	496
1	4488	370276.09672760594	497
1	4495	370921.185984090002	498
1	4504	371686.016106884958	499
1	4513	372384.6422099043	500
1	4522	373169.414134556459	501
1	4533	374059.718180168452	502
1	4540	374582.869430864262	503
1	4549	375211.659786617416	504
1	4558	376488.129296014118	505
1	4571	377498.662523366544	506
1	4578	378065.414894605089	507
1	4585	378708.521075220812	508
1	4594	379831.117608351667	509
1	4605	380465.416446374763	510
1	4616	381639.728065487032	511
1	4625	382351.014494989102	512
1	4632	382797.948182607104	513
1	4641	383561.769169801881	514
1	4652	384575.940136844327	515
1	4661	385165.675110742485	516
1	4668	385762.049810215866	517
1	4677	386553.8590206765	518
1	4684	386937.30263728652	519
1	4693	387775.756014743856	520
1	4702	388762.314856331832	521
1	4713	389676.528602605722	522
1	4724	390417.72548574958	523
1	4729	390739.662079000883	524
1	4738	391326.449269847981	525
1	4747	392172.650116123296	526
1	4758	392927.485279552676	527
1	4765	393690.844625886567	528
1	4778	394656.935203168579	529
1	4787	395515.838226210364	530
1	4794	395966.07715571303	531
1	4803	396420.7261977252	532
1	4812	397104.549258342051	533
1	4821	397820.440942654424	534
1	4832	398795.019070850722	535
1	4839	399417.360461689569	536
1	4846	399928.522204561196	537
1	4857	401198.594171181358	538
1	4864	401713.048959709741	539
1	4877	402515.255378047041	540
1	4886	403339.895329624451	541
1	4891	403688.718362851105	542
1	4900	404242.925709765441	543
1	4909	404895.497039705552	544
1	4920	405851.78296579983	545
1	4927	406238.597653387151	546
1	4940	406909.944159351326	547
1	4947	407368.543815566264	548
1	4958	408278.394574346058	549
1	4963	408939.73207985986	550
1	4976	409788.756039831825	551
1	4981	410294.038546225094	552
1	4990	410894.503108458631	553
1	5003	412074.514896981456	554
1	5012	412861.678034579419	555
1	5017	413196.070405840911	556
1	5022	413539.324058638923	557
1	5037	414939.392735855692	558
1	5046	415490.258261421734	559
1	5055	416285.136886546427	560
1	5066	417115.489345416465	561
1	5071	417768.776367651337	562
1	5084	418693.35082224574	563
1	5091	419246.442355262153	564
1	5100	420024.504857417234	565
1	5111	421132.304863678329	566
1	5116	421435.396641958543	567
1	5127	422559.275009064042	568
1	5136	423285.548461647742	569
1	5143	424092.460611602329	570
1	5154	424521.894800104239	571
1	5163	425325.986170582511	572
1	5172	426179.969352716618	573
1	5183	426896.216781344303	574
1	5190	427556.344500649759	575
1	5201	428425.491187814662	576
1	5208	428879.641177179331	577
1	5217	429932.33873695139	578
1	5228	430845.44808003124	579
1	5237	431570.786612620616	580
1	5244	432066.548390407154	581
1	5251	432488.991625607053	582
1	5264	433694.22717145648	583
1	5269	434173.185824090654	584
1	5282	435320.17698814165	585
1	5287	435734.029159415552	586
1	5298	436579.327517934183	587
1	5305	437145.469347294459	588
1	5314	437917.659444082568	589
1	5327	439118.331991229246	590
1	5332	439503.235879959578	591
1	5343	440455.632071290204	592
1	5350	441047.478342102879	593
1	5361	441748.75690410849	594
1	5372	442421.458455082069	595
1	5377	442993.095769174437	596
1	5388	443957.6986279339	597
1	5395	444444.590269820805	598
1	5408	445658.629242656793	599
1	5417	446236.635655118193	600
1	5422	446572.265565767925	601
1	5431	447479.192363703664	602
1	5440	448179.062870889943	603
1	5449	449109.624597709667	604
1	5458	449880.071900971275	605
1	5471	451099.387242039706	606
1	5480	451987.67864308324	607
1	5485	452519.547085091512	608
1	5496	453365.251175081398	609
1	5503	453849.080764967989	610
1	5516	455100.355124892707	611
1	5525	455967.324637295718	612
1	5532	456577.720287675078	613
1	5539	456908.422548417042	614
1	5548	457601.358849322464	615
1	5561	458981.919052032793	616
1	5566	459305.053397314662	617
1	5579	460490.527930716092	618
1	5588	461332.417717622632	619
1	5595	461836.271547060499	620
1	5602	462428.74593255114	621
1	5613	463408.251864183733	622
1	5620	463887.164278049061	623
1	5631	464798.03689951081	624
1	5642	465586.364982510025	625
1	5651	466404.450716497416	626
1	5656	466745.761894667561	627
1	5667	467866.515868390019	628
1	5674	468500.891420524607	629
1	5687	469281.021608272607	630
1	5692	470017.684368789236	631
1	5705	470793.777846777851	632
1	5712	471678.06906402115	633
1	5723	472513.017356582025	634
1	5728	472920.894529111722	635
1	5737	473444.69833835032	636
1	5746	474389.768011914606	637
1	5757	475251.072643417904	638
1	5764	475683.134960476348	639
1	5777	476866.869619209359	640
1	5784	477442.251531500409	641
1	5791	477823.142718197818	642
1	5800	479147.942723985802	643
1	5811	479639.69898764048	644
1	5820	480591.861013742204	645
1	5829	481092.271786462556	646
1	5840	482351.448543090414	647
1	5845	482871.67628821921	648
1	5854	483543.665995728265	649
1	5863	484217.618544912007	650
1	5872	485152.087286207866	651
1	5883	485933.218125952449	652
1	5892	486716.376439109486	653
1	5903	487758.451151708183	654
1	5912	488611.830255109859	655
1	5917	489128.3909354825	656
1	5930	490089.845268381802	657
1	5935	490638.125879410697	658
1	5944	490946.167537244079	659
1	5953	491682.875272398857	660
1	5962	492759.987538866741	661
1	5975	493336.228686338334	662
1	5982	493945.182009693279	663
1	5991	494787.100195605351	664
1	6000	495558.340861508666	665
1	6011	496410.503918118818	666
1	6016	496995.999632868959	667
1	6027	497763.233755342706	668
1	6038	498741.175616439476	669
1	6045	499110.692491242706	670
1	6054	499622.44943082337	671
1	6061	500493.981682229831	672
1	6070	501048.378249630376	673
1	6081	501958.917892165527	674
1	6088	502271.487931301862	675
1	6097	502979.418073967144	676
1	6106	504168.530152458743	677
1	6115	504814.335895422892	678
1	6124	505528.358732583047	679
1	6137	506720.919961156369	680
1	6146	507590.044141933367	681
1	6155	508448.690096056134	682
1	6162	509042.9420372006	683
1	6169	509482.371926447421	684
1	6174	510029.292460111946	685
1	6191	511206.444562599108	686
1	6198	512072.755074128554	687
1	6205	512536.12670693551	688
1	6214	513165.529922163159	689
1	6227	514122.377728298352	690
1	6232	514498.754140734718	691
1	6241	515064.272920321719	692
1	6250	516061.811289796652	693
1	6261	516743.467392493086	694
1	6268	517058.031017426448	695
1	6277	517962.110256683128	696
1	6290	518949.919584486681	697
1	6297	519448.279899777892	698
1	6304	519907.659432152334	699
1	6317	520986.542386701379	700
1	6322	521440.210664179225	701
1	6335	522352.212370187093	702
1	6340	522838.589901337449	703
1	6349	523500.546017987703	704
1	6360	524433.553361892749	705
1	6367	525099.517924524892	706
1	6376	525676.387259177912	707
1	6385	526310.047008376617	708
1	6398	527138.3666615468	709
1	6405	527981.262684194419	710
1	6416	528796.664268896032	711
1	6423	529114.789192378569	712
1	6434	530507.708514109302	713
1	6439	530918.977297190625	714
1	6452	532060.160094732467	715
1	6459	532598.952989978764	716
1	6470	533701.246419176507	717
1	6479	534439.533252222511	718
1	6484	534978.284422773915	719
1	6497	535803.266689041677	720
1	6504	536683.66936733951	721
1	6513	537386.338713252965	722
1	6520	537858.028584485922	723
1	6533	539107.702143536929	724
1	6542	539722.448384156499	725
1	6549	540494.564404198948	726
1	6558	541359.199028369088	727
1	6565	541797.273081913639	728
1	6578	542683.400926552762	729
1	6583	543405.963702499916	730
1	6596	544225.766070792501	731
1	6605	544739.555061981131	732
1	6614	545597.130065364812	733
1	6619	545995.265339920346	734
1	6632	547314.299012627502	735
1	6639	548144.590193778326	736
1	6646	548535.444223182325	737
1	6655	549354.295400809546	738
1	6664	549852.561972755988	739
1	6673	550410.246932320346	740
1	6682	551191.612926358407	741
1	6695	552087.846444966321	742
1	6702	552701.083893561785	743
1	6709	553199.955046316658	744
1	6718	554188.195394491826	745
1	6731	555340.889822132936	746
1	6740	556218.326865462637	747
1	6747	556638.984475750527	748
1	6756	557537.780877901292	749
1	6767	558583.81135063251	750
1	6772	558960.623874049685	751
1	6785	559990.58906659489	752
1	6790	560409.935869602537	753
1	6799	561262.854551849938	754
1	6812	562383.560679433919	755
1	6819	562837.621368141897	756
1	6826	563574.756608298101	757
1	6837	564291.932812007196	758
1	6844	564656.832126807473	759
1	6855	565903.905918309517	760
1	6866	566770.392278675041	761
1	6873	567179.278072295762	762
1	6880	567645.267910603485	763
1	6889	568344.730512611619	764
1	6900	569362.0802014601	765
1	6909	569880.169258033908	766
1	6916	570318.51202924741	767
1	6925	571041.330277780123	768
1	6938	572499.937428021855	769
1	6947	573392.592461407236	770
1	6954	573754.986967658675	771
1	6961	574409.182664053567	772
1	6972	575305.483573023282	773
1	6981	576124.84843125572	774
1	6988	576486.99551029136	775
1	6997	576963.706063572369	776
1	7006	577944.203902781061	777
1	7017	578680.032903794251	778
1	7024	579159.525092644669	779
1	7033	579966.811731224932	780
1	7042	580961.608937010221	781
1	7053	581921.409700624697	782
1	7062	582592.007244005852	783
1	7069	583249.125697463804	784
1	7078	583842.826479021513	785
1	7087	584785.744262114221	786
1	7098	585798.703638883362	787
1	7107	586566.34887834085	788
1	7114	587349.567770864869	789
1	7123	588001.776339579428	790
1	7136	589291.331809619495	791
1	7141	589785.351096466237	792
1	7154	590843.012019060606	793
1	7163	591624.425471574122	794
1	7168	592152.36181262886	795
1	7179	592964.429319743121	796
1	7188	593436.459328886176	797
1	7195	593822.576469462419	798
1	7204	594746.01116906857	799
1	7213	595690.705782920176	800
1	7222	596663.329364173169	801
1	7231	597188.88038671581	802
1	7240	597915.567380748744	803
1	7253	598839.588273223545	804
1	7262	599620.233199792038	805
1	7267	599939.177956944387	806
1	7280	601245.376229798477	807
1	7285	601606.810198864024	808
1	7298	602616.812586737853	809
1	7305	603448.290391266402	810
1	7316	604219.634644920063	811

