version 2
run Pipelined_3Teachers-49-20190105-10:57:29-516
attr configname Pipelined_3Teachers
attr datetime 20190105-10:57:29
attr experiment Pipelined_3Teachers
attr inifile ../simulations/omnetpp.ini
attr iterationvars "$0=\"uniform\""
attr iterationvarsf uniform-
attr measurement "$0=\"uniform\""
attr network PipelinedExamSession
attr processid 516
attr repetition 49
attr replication #49
attr resultdir results
attr runnumber 49
attr seedset 49
param **.teachersNumber 3
param **.answerTimeDistribution "\"uniform\""
param **.minUniform 300
param **.maxUniform 900
param **.scaleLognormal 6.2854
param **.shapeLognormal 0.4724

vector 0 PipelinedExamSession examinationTime:vector ETV
attr source examFinished
vector 1 PipelinedExamSession studentID:vector ETV
attr source student
0	3158	260452.409823518274	1977.515395917
0	3163	260902.968740137322	1859.3179894611
0	3172	261622.667512809885	1978.6767204758
0	3181	262312.129804026363	1859.7199805081
0	3190	262928.071505064173	1670.4242190812
0	3203	263689.130529854476	1790.3005349915
0	3212	264526.043069316104	2172.8820115328
0	3221	265334.573226654932	2159.1689567082
0	3226	265658.423785865337	1969.2932560109
0	3235	266626.923838583782	2100.8807692677
0	3248	267832.657592184873	2498.0843655299
0	3255	268320.967902615698	2093.0676096585
0	3262	268647.146033635395	1550.7589586545
0	3275	269493.094327300818	1660.4367351159
0	3282	270198.019156185941	1570.1205600053
0	3291	271036.66541632268	1924.3198417593
0	3298	271495.047684945198	2001.9533576444
0	3307	272214.583853865074	1948.4933847561
0	3316	273028.84497405033	1888.1440491881
0	3329	274026.07987211089	1990.5035906006
0	3334	274461.072080908375	1868.3267704211
0	3343	275110.103014530645	1718.0672785733
0	3352	275835.790569148989	1809.7106970381
0	3361	276837.436640588598	2026.9732024055
0	3374	277657.36915105957	2195.2129557263
0	3379	278100.05376362245	1845.5152270384
0	3388	278765.545816021072	1631.3219897915
0	3401	280060.26401887651	2402.8948678169
0	3406	280737.592699192496	2225.4286570475
0	3417	281549.50245539661	2151.5331648756
0	3428	282546.587332477825	2486.3233136013
0	3433	282861.553878430309	2042.2106066253
0	3442	283294.464080734211	1606.2344624195
0	3451	284312.880814075502	1766.2934815977
0	3460	285290.195155330035	2208.4429919254
0	3473	286038.071927614543	2106.7062491085
0	3478	286509.491821518201	1715.24658571
0	3489	287353.272633953053	2009.2736321501
0	3498	287853.781829774412	1815.7099021599
0	3505	288455.788202164727	1594.2021869123
0	3514	289455.162903014604	2056.3033092767
0	3525	290289.996816823292	2052.8056008741
0	3536	291186.109603475812	2474.9022541568
0	3543	291749.389566807109	2164.3599264789
0	3554	292636.086735455352	2296.49452921
0	3561	293204.756164876777	2018.646561401
0	3572	294120.997448125887	2269.6718269028
0	3579	294553.832154767621	1917.7454193123
0	3586	295295.723517704788	2032.9109699931
0	3591	295686.750477645579	1565.7530295197
0	3604	296864.926970936391	2020.6616281997
0	3617	297880.194799974595	2171.8746473081
0	3626	298503.50344665352	2207.2427300736
0	3631	298887.884656526183	1753.7215420045
0	3642	299718.888271506911	1838.6934715323
0	3649	300335.084546869655	1831.5811002161
0	3658	301173.401381447946	1937.7689617686
0	3669	302138.597847148811	2151.9440830685
0	3676	302588.149117212778	1736.9425341021
0	3689	303523.204111866688	1899.8343093786
0	3696	304232.962301373517	2039.5049095619
0	3705	305112.56083133634	2403.108668793
0	3716	305734.891796484625	2211.6876846179
0	3723	306380.63122532334	1958.9611045551
0	3730	306851.832664758002	1715.2632279787
0	3739	307599.175814213267	1864.2840177286
0	3750	308491.752956667951	2004.0409742855
0	3759	309110.004991153291	1824.0764527582
0	3768	309923.966234922445	2030.9894681443
0	3775	310420.680919149927	1651.197369257
0	3784	310936.963154375589	1501.2806510087
0	3797	312292.302447231523	2230.8035845868
0	3802	312616.03944925595	1733.8621153962
0	3813	313499.05854715038	1865.4689105228
0	3824	314321.904374845362	2029.6019276138
0	3829	315072.958619892633	2138.2370545529
0	3840	315956.421365635505	2260.4419862386
0	3847	316609.509102534538	2287.6047276892
0	3858	317252.822036203033	2066.8873464223
0	3869	317944.956762436813	1971.1126210168
0	3874	318340.455064969173	1674.8591893818
0	3885	319441.458018450102	2121.6001389083
0	3894	320144.902292126826	2199.94552969
0	3901	320684.576351847536	1944.8027947918
0	3914	321729.248317424244	2208.2227670588
0	3923	322431.854215683452	2024.1769406945
0	3930	322830.612636962942	1877.5626322255
0	3937	323475.666959909759	1746.4186424855
0	3948	324410.161535069383	1978.3073193859
0	3955	325179.054552549533	2010.5048988014
0	3966	326157.088056486136	2256.964617921
0	3973	326685.501054022497	2011.3963259384
0	3982	327406.476702773981	1991.1488728132
0	3993	328303.393281949721	2013.1230494007
0	4000	328782.552493410222	1718.3893005364
0	4009	329274.705612938889	1448.4124133829
0	4022	330707.908351393454	2185.1526158396
0	4029	331306.518024858125	2134.8651347682
0	4038	331901.700016809665	1852.3204873782
0	4045	332337.986332504116	1630.0779811107
0	4054	333237.813904043326	1751.8308965955
0	4063	333766.521374462211	1844.3426279817
0	4072	334571.035729022735	1962.7180966549
0	4081	335235.121455229858	1791.6789321229
0	4090	335993.889963347503	1880.8006146457
0	4101	336633.093556668647	1657.4035397731
0	4108	337268.124746438154	1779.5042515732
0	4121	338484.266118519046	2409.4027355779
0	4128	339242.414679424875	2279.0399772115
0	4135	339706.708544539326	2042.3246591818
0	4146	340883.236680552402	2398.9705620334
0	4153	341277.262098155954	2011.6040744819
0	4166	342430.062513286286	2332.7140877489
0	4175	343266.204025084191	2292.8432034329
0	4180	343797.188151162156	2117.1334275976
0	4189	344500.772544276008	2070.7100309897
0	4200	345550.306228129232	2284.102203045
0	4211	346378.573010349685	2410.2314909454
0	4220	347041.469541052395	2205.3347036708
0	4225	347366.482246387789	1654.8419957981
0	4234	348020.01989437271	1641.446884023
0	4243	348692.121672118121	1650.6521310657
0	4256	349731.728750886434	2221.6498233844
0	4263	350510.481116501653	2348.080929229
0	4274	351330.679726693818	2471.4045053814
0	4281	351734.158239467108	2002.4294885807
0	4288	352342.439126316497	1811.7816011421
0	4297	353219.451524689833	1888.771797996
0	4306	353851.711793476755	1811.5643255878
0	4315	354335.776414722244	1422.6417146623
0	4324	354885.159597918431	1335.5723102577
0	4333	355609.790864400605	1646.6251533944
0	4344	356476.582454703788	1644.1490747966
0	4351	357235.873042652422	1805.2636745386
0	4360	357941.499748220706	1889.9809357245
0	4373	358969.061247166285	2169.8852289934
0	4382	359839.411860751027	2149.1203432437
0	4389	360234.735959535504	2028.2237243839
0	4396	360839.965218119363	1870.9039709531
0	4409	361631.830059830139	1792.4181990791
0	4418	362497.653569793368	2248.8400077447
0	4423	362863.836461026261	1898.0081842281
0	4432	363711.492819758171	2079.662759928
0	4443	364581.189722707534	2083.5361529142
0	4450	364983.230893313924	1712.6311783679
0	4459	365492.217079969161	1482.356464304
0	4472	366512.428413983474	1770.4208516981
0	4477	366860.465762810821	1788.6711860541
0	4486	367567.369595356325	1601.6589165665
0	4497	368815.24932696488	2302.8209129814
0	4506	369560.473274253349	2314.9081491865
0	4517	370569.522783346513	2517.1678774059
0	4524	371095.113603584507	2236.4390908275
0	4535	371942.920645326415	2223.2436127961
0	4540	372320.404365984762	1750.8815826382
0	4549	373253.315462032372	2122.3389180377
0	4558	373610.223532933781	1667.3028876074
0	4567	374460.958343977148	1675.5412798841
0	4578	375308.626224054063	1885.5232736561
0	4587	376389.788520243058	2393.3316576295
0	4594	376742.351322015787	1854.8750886228
0	4605	377354.579244554082	1795.151286805
0	4614	377985.097876936237	1589.817324467
0	4623	378622.959020873571	1634.0713340789
0	4630	379275.081324297974	1802.0270555746
0	4643	380241.255025891626	2088.149506459
0	4650	380893.935531238133	2040.0479377247
0	4657	381493.908810149917	1745.9909233265
0	4670	382666.259754030073	2425.0047281384
0	4675	383112.730410089755	2080.7822005358
0	4684	383800.65120155927	1994.0087350085
0	4695	384992.597521282772	2326.3377672527
0	4704	385715.61185340401	2304.6217897441
0	4711	386196.395342750514	2057.8804476187
0	4724	387534.919492621015	2535.4211487807
0	4733	388248.302797135006	2470.5573475454
0	4742	389143.700452940579	2475.8444965817
0	4749	389522.982746874954	1988.0632542539
0	4758	390185.612973058637	1937.3101759236
0	4769	390986.155177652877	1842.4547247123
0	4774	391385.427039256361	1788.4010071401
0	4785	392206.94689792585	2010.5130833108
0	4794	392818.930546660018	1832.7753690071
0	4803	393633.07124655698	1890.203968389
0	4810	394129.004804883195	1849.8860931024
0	4823	395553.146193455947	2391.5115551557
0	4830	396274.901873711539	2312.6345108729
0	4837	396834.949130751235	2115.788057819
0	4850	397655.075767077548	2101.9295736216
0	4859	398378.782406263096	1977.7381859254
0	4864	398736.322291055737	1638.2980354596
0	4877	399325.55393027146	1670.4781631939
0	4884	400008.505064249082	1629.722657986
0	4891	400456.292341137348	1707.5251840521
0	4900	401197.388575645207	1871.8346453737
0	4911	401745.582652464552	1617.220894061
0	4918	402510.727674141569	1737.83865273
0	4929	403530.859406897842	2269.0457434393
0	4936	404212.038878258362	2107.0349158254
0	4945	404705.358929978727	1705.6230291724
0	4954	405529.577166913121	1797.8828061372
0	4963	405990.26343938899	1622.0969683025
0	4976	407152.374967094555	2154.5993800275
0	4985	408028.920545568734	2384.0447630268
0	4990	408489.853015914604	2226.0481433943
0	5003	409632.144374353855	2479.7694072593
0	5008	410164.274474093734	2135.353928525
0	5017	410726.770621771037	1813.923203107
0	5026	411212.154049426361	1580.0096750725
0	5037	412037.02229317282	1682.5704022776
0	5044	412479.028289811729	1604.5083530713
0	5053	413539.931115880652	1967.8837754298
0	5062	414136.607698118357	1801.3723372947
0	5071	414849.763211561411	1843.498822907
0	5080	415964.755978714718	2129.3224013876
0	5089	416548.678131680979	1950.0360283535
0	5098	417108.858497114896	1937.5156658236
0	5107	417747.684917645573	1690.9344423562
0	5116	418606.214670511007	1818.7236607075
0	5127	419446.749261813282	2106.001670938
0	5138	420002.67779049468	1775.4063924775
0	5145	420723.220268776685	1777.1102169994
0	5154	421450.476266909435	2003.1483585946
0	5165	422375.820047641218	2373.1422571465
0	5170	422767.371542332739	1931.0522271786
0	5179	423342.914370819972	1817.3586067278
0	5190	424503.350052097858	2127.5300044566
0	5197	425346.210738178388	2086.9430510793
0	5210	426642.747932067187	2603.5512671806
0	5215	427027.229907782794	2137.5907114707
0	5226	428102.46558389631	2347.9154935107
0	5237	428982.41860857238	2339.6706765052
0	5246	429812.685995595576	2481.5568717197
0	5251	430258.922321721958	2042.2085111495
0	5260	430831.941596511798	1849.5229879394
0	5269	431621.044612862216	1808.3586172666
0	5278	432062.945454753981	1571.7264734209
0	5289	432958.263855474115	1954.0984036401
0	5296	433291.446922905788	1538.3341977373
0	5307	434001.674995059193	1494.0192448441
0	5316	434513.643238088162	1535.9696466476
0	5319	434833.071128977509	1225.5369810853
0	5332	435751.210871804551	1719.7892675176
0	5343	436812.311730394186	1977.6869043242
0	5354	437515.478687966289	2149.2334614974
0	5363	438134.500300884293	2017.9036977701
0	5370	438895.831036800565	2005.2074788604
0	5381	439641.063390439422	2125.5847024731
0	5388	440341.714095789985	2207.2137949057
0	5399	441169.422859791712	2144.6157400031
0	5408	441952.879446325869	2311.8160558864
0	5413	442404.231643583671	1974.6932462789
0	5422	442958.166836388454	1788.7439765967
0	5433	444348.083763336808	2395.2043170109
0	5444	445241.482072603003	2540.2411835734
0	5449	445657.432090211705	2083.4295156877
0	5458	446562.707804376305	2165.6849639956
0	5471	447491.134359967009	2249.652287364
0	5480	448161.730130715341	2275.3953825217
0	5485	448642.793244821996	1962.8140195739
0	5498	449564.54360405919	2073.4092440922
0	5507	450391.527417115912	2229.7972864006
0	5514	450744.222687045157	1693.856603466
0	5525	451634.288746258289	2069.7451421991
0	5530	452095.423373300627	1703.8959561847
0	5539	452842.951159318954	1898.3208462596
0	5548	453241.550947353289	1607.262201095
0	5557	453583.491323562385	1310.6459427159
0	5568	454846.368742408276	1899.8241144698
0	5579	455705.587250785947	2404.9780264031
0	5586	456036.709779594138	1866.4943859447
0	5593	456622.071865433872	1670.1004214119
0	5602	457488.718660874337	1783.1314100884
0	5611	458514.5064555109	2242.433846835
0	5620	459007.054336136253	1844.3843702786
0	5631	459891.374304983811	1939.1989159863
0	5642	461162.90182806556	2403.521367861
0	5647	461530.143475206614	1951.9316552673
0	5660	462747.584447823511	2449.1739547346
0	5667	463134.500422189058	1971.5985941235
0	5678	464169.001604570123	2167.618349148
0	5683	464809.148941515061	2061.5644936916
0	5696	465584.783411957371	2266.8921844102
0	5701	465913.035570317927	1744.0339657478
0	5710	466696.239047544125	1665.1648906991
0	5721	467440.680399863097	1855.8969879057
0	5730	467907.551774103243	1625.819866173
0	5737	468812.003243900884	1859.3699557241
0	5748	469432.789297448519	1904.2639042251
0	5755	470079.303134372506	1992.4640551675
0	5766	470904.111961461652	1975.037628226
0	5775	471457.695533288691	1697.0939140767
0	5782	472054.74503757437	1548.5725596081
0	5791	472994.455474242617	2061.4536280744
0	5802	473655.333656212364	1926.1133213528
0	5813	474924.280334590052	2416.3010233082
0	5818	475324.956755619545	2078.7546354812
0	5827	476155.934212356855	2012.9512428772
0	5836	476782.829444529538	1858.5491099395
0	5847	477538.756743120079	1776.6466780566
0	5854	477941.731354733979	1532.5127294753
0	5865	479300.358868902599	2224.729161663
0	5874	479906.673694308897	2039.9032314308
0	5883	480546.237668674489	1821.4061858598
0	5890	480974.675714643722	1653.0819463078
0	5901	481507.544161565652	1493.4587290976
0	5910	482449.141342844864	1787.6202374697
0	5919	483305.077038891664	2218.7570675276
0	5930	484322.631978755867	2380.3591797128
0	5937	485182.100138207948	2374.0045842715
0	5948	486112.675592349892	2492.0418407768
0	5955	486674.037321377595	2351.4053426217
0	5964	487504.686067672496	2283.8790892158
0	5971	487983.914606133526	1871.2390137836
0	5980	488662.419497268325	1966.1379971076
0	5989	489501.026116451299	1990.2081655338
0	5998	490249.163885973445	1912.9462444223
0	6007	490871.958589134789	1680.4715387989
0	6016	491435.125606460548	1702.9977047816
0	6027	492168.646101141399	1598.5147263855
0	6034	492943.754965625754	1719.2078316584
0	6045	493759.074118640325	1973.2530970126
0	6052	494314.238268183595	1954.232391715
0	6063	495297.323801089128	2067.1659323853
0	6074	495875.910891126891	1788.7901871465
0	6081	496341.386373527398	1685.655240342
0	6090	497240.466694906404	1910.0890135858
0	6099	497995.591471670246	2119.6805805434
0	6108	498650.217761378786	1978.8608506322
0	6119	499410.873915161987	2027.8690563049
0	6124	499761.050591245343	1658.0105333123
0	6135	500569.42448252817	1711.6978535894
0	6142	501029.023700533485	1618.1497853715
0	6153	502110.285226721366	2012.2637629509
0	6160	502456.033273274128	1637.269179197
0	6173	503365.189913800036	1919.9651149102
0	6178	503784.442516369795	1561.6063438822
0	6187	504676.503226999243	1772.3855981603
0	6198	505360.133306169933	1994.9433923699
0	6205	505871.470782207375	1709.0707181487
0	6214	506811.709970003044	2010.8478070702
0	6227	507643.157632928392	2172.262801649
0	6236	508323.228421993604	1969.6510186885
0	6243	508974.622263154065	1850.7864309009
0	6250	509784.385560080459	2141.2279271521
0	6263	510869.092955254069	2545.8645332605
0	6270	511391.531133279255	2206.079217419
0	6277	512134.433346055499	2051.2132036965
0	6286	512664.792731870016	1795.6997766159
0	6299	513887.248749006591	2429.0887668729
0	6304	514500.380875635944	2168.216461502
0	6313	515036.733307130687	1949.1886150092
0	6326	516393.558087665639	2506.309338659
0	6333	516891.77421424543	2144.1578408238
0	6344	517678.4435443115	2183.8673712686
0	6351	518480.074189463681	2086.516101798
0	6358	518876.24937160877	1655.6008195505
0	6369	519611.705056624538	1933.261512313
0	6378	520808.708582120067	2265.2935114224
0	6389	521442.500796541622	2263.4990166407
0	6394	521795.595177635601	1753.7561003119
0	6405	522507.277841912633	1628.6435111426
0	6416	523594.934082543528	2152.4332860019
0	6425	524470.802800543657	2564.2363074236
0	6434	525213.329473603568	2455.2958186716
0	6439	525598.723580874554	2003.789498331
0	6452	526634.358385624415	2163.5555850808
0	6457	527010.328484047255	1796.9990104437
0	6466	527908.344299811921	2045.0145581737
0	6475	528773.093243502131	2138.7348578777
0	6484	529906.904774252376	2384.3640626874
0	6495	530551.915177144162	2147.9732183274
0	6504	531262.280916888319	2007.547336584
0	6515	532180.149688432044	2157.1219249628
0	6522	532567.644970631278	1654.5856812503
0	6531	533362.112161796591	1870.3745523468
0	6540	533994.869582215375	1814.7198937833
0	6551	534882.864811504311	2250.961057283
0	6556	535200.261057447693	1705.8040436357
0	6565	536087.372719030879	1989.4015779253
0	6576	537219.566766684927	2336.7019551806
0	6585	537977.621923433669	2202.0713640377
0	6592	538491.245204396598	1835.2972855791
0	6601	539383.22642608551	1897.2471718211
0	6612	540355.504257185437	2001.7578088213
0	6619	540820.104835974105	1656.0967164114
0	6630	541580.493357125723	2053.2731919084
0	6641	542721.57689337624	2304.3450174853
0	6650	543496.093025850186	2452.3810911924
0	6659	544278.138785809332	2375.701392442
0	6664	544686.648541688973	1965.0716483127
0	6669	545083.037584181929	1586.9445583317
0	6684	546442.519256332943	2164.3804705236
0	6691	546811.646141018772	1693.6184280552
0	6700	547744.248276064226	1997.089948738
0	6711	548358.973420271704	1849.3133281823
0	6718	548797.560337046215	1885.3809066117
0	6727	549610.808639600927	1808.3027919754
0	6736	550301.499761408248	1654.4929435942
0	6747	551312.202852079699	2033.5027855821
0	6754	551757.475343998576	1653.0308614019
0	6763	552494.829929620082	1855.6045542005
0	6774	553371.614401275347	1918.6625090428
0	6785	554285.823812428917	2287.223965209
0	6792	554641.146043594982	1875.9371434338
0	6795	554964.684601826649	1562.3599424958
0	6812	556357.767130807098	2071.9433183782
0	6821	556950.923299184125	1914.0193627216
0	6828	557628.867802675869	1900.4475168418
0	6835	558049.07313524751	1691.3060044404
0	6844	558988.812989601921	2037.8896904178
0	6855	559776.655186386835	2105.1724021789
0	6864	560487.17906484386	2148.5909367912
0	6871	560991.33647899149	1873.4390033875
0	6882	562012.602606928032	2022.4656701088
0	6893	562890.882490854766	2021.2253109086
0	6900	563458.541599614601	1972.2831609193
0	6907	563888.116148253958	1710.6222725473
0	6918	564865.345338452663	1974.4628475979
0	6925	565286.113199265729	1742.6668154541
0	6938	566507.99459489068	2144.1310197115
0	6945	567189.091049088221	2171.4769646991
0	6954	568003.488144138884	2205.3630539216
0	6963	568639.39817436045	2131.4035794698
0	6970	569291.866381745841	1984.8261731677
0	6979	569846.124051371646	1812.6133844722
0	6992	570572.380141122323	1913.9604090247
0	7001	571356.593642709833	1810.50174376
0	7006	571677.323293872234	1706.4216063358
0	7019	572983.345090085697	2410.9649489634
0	7026	573631.980341160726	2275.3866984509
0	7033	574387.410528352541	2231.1421091203
0	7044	575203.809774946479	2220.4646848608
0	7051	575716.627390449924	1845.9848288912
0	7062	576550.611661188362	1809.0395028703
0	7073	577392.261253343953	2089.7508257534
0	7080	578094.003138039319	2164.3375013955
0	7091	578837.565127434267	2155.3987202235
0	7098	579323.265250073804	1931.0039967299
0	7107	580238.956166105403	2045.5737093464
0	7116	580892.642530705838	2055.0774032716
0	7127	581624.393041245698	1900.652822759
0	7136	582302.865089708998	1848.1162890326
0	7143	582821.108838217392	1765.6236265786
0	7152	583543.317748513132	1918.9247072674
0	7163	584550.535113131687	2247.6700234227
0	7172	585014.891197811872	1928.9960732684
0	7179	585515.132668381617	1549.4204998948
0	7188	586589.918650640234	2039.3835375085
0	7197	587306.417189631671	2291.5259918198
0	7204	587919.238954084054	2008.2196075469
0	7217	588812.13571135892	2112.823128188
0	7226	589280.124864913583	1874.0426591132
0	7231	589654.366914974585	1543.4912800323
0	7244	590787.951799342469	1975.8160879835
0	7251	591487.972525041611	2207.847660128
0	7262	592282.514023035825	2356.8642578088
0	7267	592680.2316291724	1892.2798298299
0	7276	593339.06092713593	1823.9254977554
0	7289	594240.635708766119	1958.1216857303
0	7298	594912.782039819346	1883.0026476178
0	7305	595276.842581480802	1818.4663791675
0	7312	595620.672443881691	1380.0367351156
0	7321	596573.255273792954	1660.4732339736
0	7330	597595.74521253823	2168.5924349818
0	7339	598354.017127258765	2086.1008850858
0	7348	598868.401770433473	1767.5076771062
0	7357	600262.196627771544	2332.0451020729
0	7368	601222.121986560585	2499.8351576272
0	7377	601896.06767948723	2345.5900194123
0	7386	602532.05036991282	2091.6337241884
0	7393	602841.033577825936	1536.9921393693
0	7402	603507.549571478801	1543.4687600937
0	7411	604421.058683143989	1720.3085075598
1	3158	260452.409823518274	349
1	3163	260902.968740137322	350
1	3172	261622.667512809885	351
1	3181	262312.129804026363	352
1	3190	262928.071505064173	353
1	3203	263689.130529854476	354
1	3212	264526.043069316104	355
1	3221	265334.573226654932	356
1	3226	265658.423785865337	357
1	3235	266626.923838583782	358
1	3248	267832.657592184873	359
1	3255	268320.967902615698	360
1	3262	268647.146033635395	361
1	3275	269493.094327300818	362
1	3282	270198.019156185941	363
1	3291	271036.66541632268	364
1	3298	271495.047684945198	365
1	3307	272214.583853865074	366
1	3316	273028.84497405033	367
1	3329	274026.07987211089	368
1	3334	274461.072080908375	369
1	3343	275110.103014530645	370
1	3352	275835.790569148989	371
1	3361	276837.436640588598	372
1	3374	277657.36915105957	373
1	3379	278100.05376362245	374
1	3388	278765.545816021072	375
1	3401	280060.26401887651	376
1	3406	280737.592699192496	377
1	3417	281549.50245539661	378
1	3428	282546.587332477825	379
1	3433	282861.553878430309	380
1	3442	283294.464080734211	381
1	3451	284312.880814075502	382
1	3460	285290.195155330035	383
1	3473	286038.071927614543	384
1	3478	286509.491821518201	385
1	3489	287353.272633953053	386
1	3498	287853.781829774412	387
1	3505	288455.788202164727	388
1	3514	289455.162903014604	389
1	3525	290289.996816823292	390
1	3536	291186.109603475812	391
1	3543	291749.389566807109	392
1	3554	292636.086735455352	393
1	3561	293204.756164876777	394
1	3572	294120.997448125887	395
1	3579	294553.832154767621	396
1	3586	295295.723517704788	397
1	3591	295686.750477645579	398
1	3604	296864.926970936391	399
1	3617	297880.194799974595	400
1	3626	298503.50344665352	401
1	3631	298887.884656526183	402
1	3642	299718.888271506911	403
1	3649	300335.084546869655	404
1	3658	301173.401381447946	405
1	3669	302138.597847148811	406
1	3676	302588.149117212778	407
1	3689	303523.204111866688	408
1	3696	304232.962301373517	409
1	3705	305112.56083133634	410
1	3716	305734.891796484625	411
1	3723	306380.63122532334	412
1	3730	306851.832664758002	413
1	3739	307599.175814213267	414
1	3750	308491.752956667951	415
1	3759	309110.004991153291	416
1	3768	309923.966234922445	417
1	3775	310420.680919149927	418
1	3784	310936.963154375589	419
1	3797	312292.302447231523	420
1	3802	312616.03944925595	421
1	3813	313499.05854715038	422
1	3824	314321.904374845362	423
1	3829	315072.958619892633	424
1	3840	315956.421365635505	425
1	3847	316609.509102534538	426
1	3858	317252.822036203033	427
1	3869	317944.956762436813	428
1	3874	318340.455064969173	429
1	3885	319441.458018450102	430
1	3894	320144.902292126826	431
1	3901	320684.576351847536	432
1	3914	321729.248317424244	433
1	3923	322431.854215683452	434
1	3930	322830.612636962942	435
1	3937	323475.666959909759	436
1	3948	324410.161535069383	437
1	3955	325179.054552549533	438
1	3966	326157.088056486136	439
1	3973	326685.501054022497	440
1	3982	327406.476702773981	441
1	3993	328303.393281949721	442
1	4000	328782.552493410222	443
1	4009	329274.705612938889	444
1	4022	330707.908351393454	445
1	4029	331306.518024858125	446
1	4038	331901.700016809665	447
1	4045	332337.986332504116	448
1	4054	333237.813904043326	449
1	4063	333766.521374462211	450
1	4072	334571.035729022735	451
1	4081	335235.121455229858	452
1	4090	335993.889963347503	453
1	4101	336633.093556668647	454
1	4108	337268.124746438154	455
1	4121	338484.266118519046	456
1	4128	339242.414679424875	457
1	4135	339706.708544539326	458
1	4146	340883.236680552402	459
1	4153	341277.262098155954	460
1	4166	342430.062513286286	461
1	4175	343266.204025084191	462
1	4180	343797.188151162156	463
1	4189	344500.772544276008	464
1	4200	345550.306228129232	465
1	4211	346378.573010349685	466
1	4220	347041.469541052395	467
1	4225	347366.482246387789	468
1	4234	348020.01989437271	469
1	4243	348692.121672118121	470
1	4256	349731.728750886434	471
1	4263	350510.481116501653	472
1	4274	351330.679726693818	473
1	4281	351734.158239467108	474
1	4288	352342.439126316497	475
1	4297	353219.451524689833	476
1	4306	353851.711793476755	477
1	4315	354335.776414722244	478
1	4324	354885.159597918431	479
1	4333	355609.790864400605	480
1	4344	356476.582454703788	481
1	4351	357235.873042652422	482
1	4360	357941.499748220706	483
1	4373	358969.061247166285	484
1	4382	359839.411860751027	485
1	4389	360234.735959535504	486
1	4396	360839.965218119363	487
1	4409	361631.830059830139	488
1	4418	362497.653569793368	489
1	4423	362863.836461026261	490
1	4432	363711.492819758171	491
1	4443	364581.189722707534	492
1	4450	364983.230893313924	493
1	4459	365492.217079969161	494
1	4472	366512.428413983474	495
1	4477	366860.465762810821	496
1	4486	367567.369595356325	497
1	4497	368815.24932696488	498
1	4506	369560.473274253349	499
1	4517	370569.522783346513	500
1	4524	371095.113603584507	501
1	4535	371942.920645326415	502
1	4540	372320.404365984762	503
1	4549	373253.315462032372	504
1	4558	373610.223532933781	505
1	4567	374460.958343977148	506
1	4578	375308.626224054063	507
1	4587	376389.788520243058	508
1	4594	376742.351322015787	509
1	4605	377354.579244554082	510
1	4614	377985.097876936237	511
1	4623	378622.959020873571	512
1	4630	379275.081324297974	513
1	4643	380241.255025891626	514
1	4650	380893.935531238133	515
1	4657	381493.908810149917	516
1	4670	382666.259754030073	517
1	4675	383112.730410089755	518
1	4684	383800.65120155927	519
1	4695	384992.597521282772	520
1	4704	385715.61185340401	521
1	4711	386196.395342750514	522
1	4724	387534.919492621015	523
1	4733	388248.302797135006	524
1	4742	389143.700452940579	525
1	4749	389522.982746874954	526
1	4758	390185.612973058637	527
1	4769	390986.155177652877	528
1	4774	391385.427039256361	529
1	4785	392206.94689792585	530
1	4794	392818.930546660018	531
1	4803	393633.07124655698	532
1	4810	394129.004804883195	533
1	4823	395553.146193455947	534
1	4830	396274.901873711539	535
1	4837	396834.949130751235	536
1	4850	397655.075767077548	537
1	4859	398378.782406263096	538
1	4864	398736.322291055737	539
1	4877	399325.55393027146	540
1	4884	400008.505064249082	541
1	4891	400456.292341137348	542
1	4900	401197.388575645207	543
1	4911	401745.582652464552	544
1	4918	402510.727674141569	545
1	4929	403530.859406897842	546
1	4936	404212.038878258362	547
1	4945	404705.358929978727	548
1	4954	405529.577166913121	549
1	4963	405990.26343938899	550
1	4976	407152.374967094555	551
1	4985	408028.920545568734	552
1	4990	408489.853015914604	553
1	5003	409632.144374353855	554
1	5008	410164.274474093734	555
1	5017	410726.770621771037	556
1	5026	411212.154049426361	557
1	5037	412037.02229317282	558
1	5044	412479.028289811729	559
1	5053	413539.931115880652	560
1	5062	414136.607698118357	561
1	5071	414849.763211561411	562
1	5080	415964.755978714718	563
1	5089	416548.678131680979	564
1	5098	417108.858497114896	565
1	5107	417747.684917645573	566
1	5116	418606.214670511007	567
1	5127	419446.749261813282	568
1	5138	420002.67779049468	569
1	5145	420723.220268776685	570
1	5154	421450.476266909435	571
1	5165	422375.820047641218	572
1	5170	422767.371542332739	573
1	5179	423342.914370819972	574
1	5190	424503.350052097858	575
1	5197	425346.210738178388	576
1	5210	426642.747932067187	577
1	5215	427027.229907782794	578
1	5226	428102.46558389631	579
1	5237	428982.41860857238	580
1	5246	429812.685995595576	581
1	5251	430258.922321721958	582
1	5260	430831.941596511798	583
1	5269	431621.044612862216	584
1	5278	432062.945454753981	585
1	5289	432958.263855474115	586
1	5296	433291.446922905788	587
1	5307	434001.674995059193	588
1	5316	434513.643238088162	589
1	5319	434833.071128977509	590
1	5332	435751.210871804551	591
1	5343	436812.311730394186	592
1	5354	437515.478687966289	593
1	5363	438134.500300884293	594
1	5370	438895.831036800565	595
1	5381	439641.063390439422	596
1	5388	440341.714095789985	597
1	5399	441169.422859791712	598
1	5408	441952.879446325869	599
1	5413	442404.231643583671	600
1	5422	442958.166836388454	601
1	5433	444348.083763336808	602
1	5444	445241.482072603003	603
1	5449	445657.432090211705	604
1	5458	446562.707804376305	605
1	5471	447491.134359967009	606
1	5480	448161.730130715341	607
1	5485	448642.793244821996	608
1	5498	449564.54360405919	609
1	5507	450391.527417115912	610
1	5514	450744.222687045157	611
1	5525	451634.288746258289	612
1	5530	452095.423373300627	613
1	5539	452842.951159318954	614
1	5548	453241.550947353289	615
1	5557	453583.491323562385	616
1	5568	454846.368742408276	617
1	5579	455705.587250785947	618
1	5586	456036.709779594138	619
1	5593	456622.071865433872	620
1	5602	457488.718660874337	621
1	5611	458514.5064555109	622
1	5620	459007.054336136253	623
1	5631	459891.374304983811	624
1	5642	461162.90182806556	625
1	5647	461530.143475206614	626
1	5660	462747.584447823511	627
1	5667	463134.500422189058	628
1	5678	464169.001604570123	629
1	5683	464809.148941515061	630
1	5696	465584.783411957371	631
1	5701	465913.035570317927	632
1	5710	466696.239047544125	633
1	5721	467440.680399863097	634
1	5730	467907.551774103243	635
1	5737	468812.003243900884	636
1	5748	469432.789297448519	637
1	5755	470079.303134372506	638
1	5766	470904.111961461652	639
1	5775	471457.695533288691	640
1	5782	472054.74503757437	641
1	5791	472994.455474242617	642
1	5802	473655.333656212364	643
1	5813	474924.280334590052	644
1	5818	475324.956755619545	645
1	5827	476155.934212356855	646
1	5836	476782.829444529538	647
1	5847	477538.756743120079	648
1	5854	477941.731354733979	649
1	5865	479300.358868902599	650
1	5874	479906.673694308897	651
1	5883	480546.237668674489	652
1	5890	480974.675714643722	653
1	5901	481507.544161565652	654
1	5910	482449.141342844864	655
1	5919	483305.077038891664	656
1	5930	484322.631978755867	657
1	5937	485182.100138207948	658
1	5948	486112.675592349892	659
1	5955	486674.037321377595	660
1	5964	487504.686067672496	661
1	5971	487983.914606133526	662
1	5980	488662.419497268325	663
1	5989	489501.026116451299	664
1	5998	490249.163885973445	665
1	6007	490871.958589134789	666
1	6016	491435.125606460548	667
1	6027	492168.646101141399	668
1	6034	492943.754965625754	669
1	6045	493759.074118640325	670
1	6052	494314.238268183595	671
1	6063	495297.323801089128	672
1	6074	495875.910891126891	673
1	6081	496341.386373527398	674
1	6090	497240.466694906404	675
1	6099	497995.591471670246	676
1	6108	498650.217761378786	677
1	6119	499410.873915161987	678
1	6124	499761.050591245343	679
1	6135	500569.42448252817	680
1	6142	501029.023700533485	681
1	6153	502110.285226721366	682
1	6160	502456.033273274128	683
1	6173	503365.189913800036	684
1	6178	503784.442516369795	685
1	6187	504676.503226999243	686
1	6198	505360.133306169933	687
1	6205	505871.470782207375	688
1	6214	506811.709970003044	689
1	6227	507643.157632928392	690
1	6236	508323.228421993604	691
1	6243	508974.622263154065	692
1	6250	509784.385560080459	693
1	6263	510869.092955254069	694
1	6270	511391.531133279255	695
1	6277	512134.433346055499	696
1	6286	512664.792731870016	697
1	6299	513887.248749006591	698
1	6304	514500.380875635944	699
1	6313	515036.733307130687	700
1	6326	516393.558087665639	701
1	6333	516891.77421424543	702
1	6344	517678.4435443115	703
1	6351	518480.074189463681	704
1	6358	518876.24937160877	705
1	6369	519611.705056624538	706
1	6378	520808.708582120067	707
1	6389	521442.500796541622	708
1	6394	521795.595177635601	709
1	6405	522507.277841912633	710
1	6416	523594.934082543528	711
1	6425	524470.802800543657	712
1	6434	525213.329473603568	713
1	6439	525598.723580874554	714
1	6452	526634.358385624415	715
1	6457	527010.328484047255	716
1	6466	527908.344299811921	717
1	6475	528773.093243502131	718
1	6484	529906.904774252376	719
1	6495	530551.915177144162	720
1	6504	531262.280916888319	721
1	6515	532180.149688432044	722
1	6522	532567.644970631278	723
1	6531	533362.112161796591	724
1	6540	533994.869582215375	725
1	6551	534882.864811504311	726
1	6556	535200.261057447693	727
1	6565	536087.372719030879	728
1	6576	537219.566766684927	729
1	6585	537977.621923433669	730
1	6592	538491.245204396598	731
1	6601	539383.22642608551	732
1	6612	540355.504257185437	733
1	6619	540820.104835974105	734
1	6630	541580.493357125723	735
1	6641	542721.57689337624	736
1	6650	543496.093025850186	737
1	6659	544278.138785809332	738
1	6664	544686.648541688973	739
1	6669	545083.037584181929	740
1	6684	546442.519256332943	741
1	6691	546811.646141018772	742
1	6700	547744.248276064226	743
1	6711	548358.973420271704	744
1	6718	548797.560337046215	745
1	6727	549610.808639600927	746
1	6736	550301.499761408248	747
1	6747	551312.202852079699	748
1	6754	551757.475343998576	749
1	6763	552494.829929620082	750
1	6774	553371.614401275347	751
1	6785	554285.823812428917	752
1	6792	554641.146043594982	753
1	6795	554964.684601826649	754
1	6812	556357.767130807098	755
1	6821	556950.923299184125	756
1	6828	557628.867802675869	757
1	6835	558049.07313524751	758
1	6844	558988.812989601921	759
1	6855	559776.655186386835	760
1	6864	560487.17906484386	761
1	6871	560991.33647899149	762
1	6882	562012.602606928032	763
1	6893	562890.882490854766	764
1	6900	563458.541599614601	765
1	6907	563888.116148253958	766
1	6918	564865.345338452663	767
1	6925	565286.113199265729	768
1	6938	566507.99459489068	769
1	6945	567189.091049088221	770
1	6954	568003.488144138884	771
1	6963	568639.39817436045	772
1	6970	569291.866381745841	773
1	6979	569846.124051371646	774
1	6992	570572.380141122323	775
1	7001	571356.593642709833	776
1	7006	571677.323293872234	777
1	7019	572983.345090085697	778
1	7026	573631.980341160726	779
1	7033	574387.410528352541	780
1	7044	575203.809774946479	781
1	7051	575716.627390449924	782
1	7062	576550.611661188362	783
1	7073	577392.261253343953	784
1	7080	578094.003138039319	785
1	7091	578837.565127434267	786
1	7098	579323.265250073804	787
1	7107	580238.956166105403	788
1	7116	580892.642530705838	789
1	7127	581624.393041245698	790
1	7136	582302.865089708998	791
1	7143	582821.108838217392	792
1	7152	583543.317748513132	793
1	7163	584550.535113131687	794
1	7172	585014.891197811872	795
1	7179	585515.132668381617	796
1	7188	586589.918650640234	797
1	7197	587306.417189631671	798
1	7204	587919.238954084054	799
1	7217	588812.13571135892	800
1	7226	589280.124864913583	801
1	7231	589654.366914974585	802
1	7244	590787.951799342469	803
1	7251	591487.972525041611	804
1	7262	592282.514023035825	805
1	7267	592680.2316291724	806
1	7276	593339.06092713593	807
1	7289	594240.635708766119	808
1	7298	594912.782039819346	809
1	7305	595276.842581480802	810
1	7312	595620.672443881691	811
1	7321	596573.255273792954	812
1	7330	597595.74521253823	813
1	7339	598354.017127258765	814
1	7348	598868.401770433473	815
1	7357	600262.196627771544	816
1	7368	601222.121986560585	817
1	7377	601896.06767948723	818
1	7386	602532.05036991282	819
1	7393	602841.033577825936	820
1	7402	603507.549571478801	821
1	7411	604421.058683143989	822

