version 2
run Pipeline_7teachers-14-20181220-18:43:16-26808
attr configname Pipeline_7teachers
attr datetime 20181220-18:43:16
attr experiment Pipeline_7teachers
attr inifile omnetpp.ini
attr iterationvars "$0=\"lognormal\""
attr iterationvarsf lognormal-
attr measurement "$0=\"lognormal\""
attr network PipelinedExamSession
attr processid 26808
attr repetition 4
attr replication #4
attr resultdir results
attr runnumber 14
attr seedset 4
param **.teachersNumber 7
param **.answerTimeDistribution "\"lognormal\""
param **.minUniform 300
param **.maxUniform 1800
param **.scaleLognormal 6.8153
param **.shapeLognormal 0.5316

vector 0 PipelinedExamSession examinationTime:vector ETV
attr source examFinished
vector 1 PipelinedExamSession studentsWaitingTime:vector ETV
attr source waitingTime
vector 2 PipelinedExamSession teachersIdleTime:vector ETV
attr source idleTime
0	97	13328.656892265588	13328.656892266
0	118	14800.868542565088	11987.956697609
0	141	15881.397061653748	10873.353466866
0	172	17643.668269285982	11483.788827176
0	195	19501.198882048308	12069.155989332
0	222	22981.050948398322	14052.103778064
0	245	24335.066158502449	13802.039973258
0	260	25421.613133625931	12092.95624136
0	293	27522.388366368132	12466.286742237
0	314	28991.661921305135	12902.096931484
0	331	30528.796768765775	12885.12849948
0	352	31738.240017426565	11564.985856651
0	375	33426.212291173751	10445.161342775
0	388	34765.469452015345	9968.7012686563
0	391	36255.182425715135	10147.315840692
0	444	40999.084053538795	12648.769469808
0	477	45564.76732879895	14413.969713325
0	490	46080.741402175794	13569.780151503
0	527	48968.024775910348	12439.633676929
0	540	49806.166665143614	11852.877356686
0	583	52945.657157248992	12084.511362099
0	602	54226.220452820622	10232.223308392
0	615	54703.434149163417	8732.7107839214
0	650	57709.052696719484	9918.4460941592
0	669	58958.259721893267	9535.2027996785
0	686	60175.320860583147	8841.1995430905
0	719	62632.754977948689	9676.1887927754
0	742	63713.520756176481	9022.0771191344
0	775	65601.145472765283	7494.6861871706
0	796	66762.269864115674	7166.4562869867
0	821	68530.218729475329	7838.9353322814
0	850	70326.267299199816	8200.9499509974
0	869	71028.085127394002	8007.0181162181
0	894	72285.797902621389	7926.4029246985
0	905	73658.757958844128	7695.3966562119
0	964	77526.270172028391	9725.8230264295
0	979	78513.708038120933	8881.9076956275
0	992	79425.006488502771	8416.7720444142
0	1045	83420.112745716147	11186.146463871
0	1070	85165.902390546821	11037.824105689
0	1087	85848.901581828575	10125.899471431
0	1100	86808.191644031377	9878.5852260017
0	1105	87379.554829844811	8539.7685585193
0	1168	91191.704840243446	11370.634888698
0	1195	94614.040078229637	12839.842986033
0	1212	95355.485974608755	11593.554977405
0	1227	96125.654780930855	10760.594951738
0	1268	98583.12388926101	11153.271387573
0	1287	99496.760746257631	10230.684436819
0	1296	100015.786675564444	9386.0378316782
0	1325	101499.513235574764	8887.2103622913
0	1344	102189.143618941351	7032.1399739531
0	1389	105619.362929660293	9092.0178439159
0	1406	105967.193165248626	8318.4150833423
0	1433	108705.24918888023	9482.0277277126
0	1472	112211.394740237384	11822.45034983
0	1489	113159.652815346481	11626.638226202
0	1510	114245.055902842328	11028.688455359
0	1535	115938.334212167834	10751.133376324
0	1556	118193.058377136865	11167.009733584
0	1577	119419.460034948803	10443.549105324
0	1612	121013.770602742753	11065.697543164
0	1615	121638.079024449241	9426.6842842119
0	1648	123841.517050060723	10313.103118643
0	1657	124925.193483570309	9060.171291098
0	1674	127081.764260839823	8812.8967869358
0	1737	131258.096874546585	11418.839569398
0	1750	132642.090702216613	11801.066116683
0	1789	135485.189101666392	12102.094246213
0	1820	138506.039192070845	11895.87809366
0	1839	139877.316644356036	11735.883063905
0	1852	140863.653485178791	10134.727856969
0	1873	142159.001029155818	10938.558539727
0	1890	142687.585198275893	9627.9995993032
0	1923	144801.839399998859	10364.839657677
0	1952	146451.217000553797	9340.7579684994
0	1961	148099.813619866675	8498.0071442738
0	1998	149667.992622240596	8222.4295355722
0	2027	153170.482889332494	10797.778814476
0	2036	154573.545004639074	10620.549799959
0	2065	157117.042657539535	11648.28019114
0	2112	160142.263745582194	11812.675595615
0	2143	162269.129466736402	13202.756612079
0	2162	163280.598049195337	11566.137904007
0	2187	164586.84152248385	8956.5821938957
0	2202	166031.951337209129	8315.4484765833
0	2211	167185.206190585966	8365.2555143886
0	2240	169089.409533153988	9349.3988851155
0	2275	170763.965914756717	9228.5862202606
0	2288	171690.944942867934	9026.5348792467
1	97	13328.656892265588	0
1	118	14800.868542565088	3500.5770813817
1	141	15881.397061653748	5575.3150477639
1	172	17643.668269285982	3743.6453594839
1	195	19501.198882048308	4152.7173544332
1	222	22981.050948398322	3601.8829113399
1	245	24335.066158502449	7537.3823032045
1	260	25421.613133625931	4367.9713188944
1	293	27522.388366368132	5161.5864688351
1	314	28991.661921305135	6069.0117492912
1	331	30528.796768765775	3345.9661007191
1	352	31738.240017426565	4070.1669410029
1	375	33426.212291173751	2864.9606895146
1	388	34765.469452015345	1765.1237666102
1	391	36255.182425715135	2934.6301325546
1	444	40999.084053538795	0
1	477	45564.76732879895	3554.7743411041
1	490	46080.741402175794	3257.2703152192
1	527	48968.024775910348	4398.7773142118
1	540	49806.166665143614	5352.5364214478
1	583	52945.657157248992	3732.9056776196
1	602	54226.220452820622	3798.5902041679
1	615	54703.434149163417	3752.3876538447
1	650	57709.052696719484	1403.0847712495
1	669	58958.259721893267	2264.5274400273
1	686	60175.320860583147	827.3682354965
1	719	62632.754977948689	3007.2997850446
1	742	63713.520756176481	0
1	775	65601.145472765283	438.11232091032
1	796	66762.269864115674	917.75001085014
1	821	68530.218729475329	1605.4706553356
1	850	70326.267299199816	366.66152544788
1	869	71028.085127394002	791.95343802166
1	894	72285.797902621389	1439.1635616555
1	905	73658.757958844128	1474.1381721657
1	964	77526.270172028391	627.38145254619
1	979	78513.708038120933	2932.6917967908
1	992	79425.006488502771	1958.2521110476
1	1045	83420.112745716147	1223.4543588226
1	1070	85165.902390546821	2772.9359866163
1	1087	85848.901581828575	284.9115256278
1	1100	86808.191644031377	1736.6770216135
1	1105	87379.554829844811	3584.2433105029
1	1168	91191.704840243446	548.23694367385
1	1195	94614.040078229637	3654.1554752381
1	1212	95355.485974608755	4660.7282183046
1	1227	96125.654780930855	4515.3483004836
1	1268	98583.12388926101	4034.7059649434
1	1287	99496.760746257631	3922.0894895529
1	1296	100015.786675564444	3882.927333773
1	1325	101499.513235574764	0
1	1344	102189.143618941351	1771.5466987306
1	1389	105619.362929660293	1257.8300475801
1	1406	105967.193165248626	1820.0509338863
1	1433	108705.24918888023	2549.6501413272
1	1472	112211.394740237384	2574.6891858305
1	1489	113159.652815346481	6530.3430764452
1	1510	114245.055902842328	3705.8666654466
1	1535	115938.334212167834	2214.8374826505
1	1556	118193.058377136865	1862.6719964914
1	1577	119419.460034948803	3517.6003424271
1	1612	121013.770602742753	2246.4338546532
1	1615	121638.079024449241	3398.3289436315
1	1648	123841.517050060723	170.84496842341
1	1657	124925.193483570309	2416.5254712085
1	1674	127081.764260839823	0
1	1737	131258.096874546585	445.19383281959
1	1750	132642.090702216613	5974.4608024894
1	1789	135485.189101666392	4226.283201836
1	1820	138506.039192070845	278.41922597396
1	1839	139877.316644356036	5498.3710912946
1	1852	140863.653485178791	2812.8439099293
1	1873	142159.001029155818	5192.8267210754
1	1890	142687.585198275893	3002.0488108347
1	1923	144801.839399998859	1512.7537945658
1	1952	146451.217000553797	2823.5211076324
1	1961	148099.813619866675	1892.6189099961
1	1998	149667.992622240596	2890.3669694093
1	2027	153170.482889332494	942.66661792571
1	2036	154573.545004639074	4961.8888365997
1	2065	157117.042657539535	3873.1940090553
1	2112	160142.263745582194	180.07100402679
1	2143	162269.129466736402	6296.9910843951
1	2162	163280.598049195337	5704.6953755349
1	2187	164586.84152248385	223.69353863205
1	2202	166031.951337209129	1698.9930233431
1	2211	167185.206190585966	208.28221591782
1	2240	169089.409533153988	1458.3659431163
1	2275	170763.965914756717	1298.2959698687
1	2288	171690.944942867934	3884.6033104461
2	2309	172800	65062.519420242
2	2309	172800	72366.030939973
2	2309	172800	71724.938094114
2	2309	172800	70183.561185489
2	2309	172800	78518.458249413
2	2309	172800	70665.686920228
2	2309	172800	68314.674086928

