version 2
run Pipelined_3Teachers-67-20190105-10:57:33-9988
attr configname Pipelined_3Teachers
attr datetime 20190105-10:57:33
attr experiment Pipelined_3Teachers
attr inifile ../simulations/omnetpp.ini
attr iterationvars "$0=\"uniform\""
attr iterationvarsf uniform-
attr measurement "$0=\"uniform\""
attr network PipelinedExamSession
attr processid 9988
attr repetition 67
attr replication #67
attr resultdir results
attr runnumber 67
attr seedset 67
param **.teachersNumber 3
param **.answerTimeDistribution "\"uniform\""
param **.minUniform 300
param **.maxUniform 900
param **.scaleLognormal 6.2854
param **.shapeLognormal 0.4724

vector 0 PipelinedExamSession examinationTime:vector ETV
attr source examFinished
vector 1 PipelinedExamSession studentID:vector ETV
attr source student
0	3174	260357.537595788034	2203.8654405624
0	3181	261115.901122195663	2110.8093587682
0	3194	262258.417137013765	2418.93388303
0	3199	262821.324765728803	2154.8544011079
0	3212	263677.96139954591	2131.3918178435
0	3217	263984.326190315204	1725.9090533014
0	3226	264906.881632329913	1866.6436003055
0	3235	265772.709065722319	2094.7476661764
0	3244	266150.875633070262	1583.6932615377
0	3253	267202.657306054624	1911.4243871067
0	3262	268308.555441163497	2166.9489720371
0	3275	269256.99985879475	2271.2389782071
0	3282	269735.908054746704	1921.3664112613
0	3291	270391.866493737342	1791.7412072886
0	3300	271051.583256572501	1794.5833977778
0	3309	272105.700000375525	2336.2204387318
0	3320	272912.830732343734	2349.0729605779
0	3325	273405.288375495017	2069.343378162
0	3334	274428.031903831304	2217.5972166471
0	3343	274908.766165841387	1995.9354334977
0	3354	275651.531391078622	1866.4902584162
0	3365	276588.254445092768	2013.2561773527
0	3372	277006.880234694124	1826.8508787733
0	3383	277954.902473604323	2151.7129078042
0	3388	278384.493411658348	1796.2389665656
0	3397	279289.453649986552	1973.5768818296
0	3406	279721.92309759559	1767.0206239913
0	3419	280941.854732483643	2122.2478813492
0	3428	281586.436019651609	2207.0242479444
0	3433	281992.836866760644	1928.939787671
0	3442	282793.015451822447	1851.1607193388
0	3451	283455.854570260288	1869.4185506087
0	3460	284236.786730540933	1962.4283744954
0	3469	285149.788153963181	2005.258330889
0	3482	286169.186647189799	2236.8827773724
0	3487	286673.636485263723	1902.9886019882
0	3496	287357.74541837165	1962.3701821547
0	3507	288266.3561451249	2097.1694979351
0	3514	288631.150207389164	1645.757753402
0	3523	289661.148800700921	2098.1366897933
0	3534	290502.347562555241	2197.5991142448
0	3541	291037.595860613527	1973.3354837168
0	3552	292026.761888712662	2168.9483973663
0	3559	292468.944182060676	1879.0019554552
0	3572	293765.704771969485	2337.7694897354
0	3577	294132.422924274596	2046.5781035833
0	3588	295316.553457779827	2394.2400000058
0	3597	295689.474624115991	1923.7698521465
0	3606	296455.252889217827	1797.0958686434
0	3615	297201.10104549678	1854.8066291492
0	3622	297756.48293592969	1757.1282799356
0	3631	298462.339154770616	1689.2547475174
0	3640	298967.396070621927	1583.157236455
0	3651	299902.063688356448	1740.1597926859
0	3658	300499.934514658545	1773.7321912777
0	3669	301374.866207549368	1855.1158178598
0	3678	302118.610631581415	2100.0484650023
0	3687	302797.287069680189	1931.7539527081
0	3694	303525.254033971598	2092.7271314431
0	3705	304169.634553883245	2041.3461414166
0	3714	304743.71909131298	1868.967100326
0	3721	305216.148263588568	1589.8485585116
0	3732	306302.306716516635	2055.1357491408
0	3743	307134.058406995631	2365.1114340406
0	3750	307860.90983496981	2233.2920914516
0	3759	308571.703813271618	2135.5628482997
0	3766	309209.529479406795	2075.4710724112
0	3777	310294.643352180741	2342.225952493
0	3788	310896.735161310083	2067.9613640998
0	3795	311480.250392016045	1942.7037062589
0	3804	312214.134321967162	1879.9695291091
0	3811	312857.153099589071	1960.417938279
0	3820	313457.828941661885	1811.0851293895
0	3829	313989.468483533731	1743.8159880694
0	3838	314712.477371469161	1685.3787560016
0	3847	315188.461488392225	1640.9123140387
0	3858	316260.246600536651	1838.045524573
0	3869	317241.178478579989	2255.191940954
0	3874	317678.062925627476	1965.325278556
0	3883	318333.829913428074	1888.8606945053
0	3896	319381.45661498422	2140.2781364042
0	3905	320037.623983668184	2001.3885241002
0	3910	320499.539768463021	1877.2221246734
0	3923	321410.494270501679	2029.0376555175
0	3928	321923.626984795576	1886.0030011274
0	3937	322753.776249848327	1942.8689165041
0	3948	323438.650887273272	2028.1566167716
0	3959	324328.101635165533	2174.0096323192
0	3964	324672.324807615971	1655.2275896072
0	3973	325023.396115656963	1562.1911365539
0	3986	325751.632472919321	1423.5308377538
0	3993	326344.610711652806	1614.2504379619
0	4002	327255.082879168934	2130.5358341429
0	4013	328198.303525988034	2446.6710530687
0	4018	328549.5375341736	1966.9392331503
0	4027	329550.699761929012	2142.0713741798
0	4038	330600.05488288591	2401.7513568979
0	4049	331474.924993375338	2434.1044688132
0	4054	332162.44566072712	2288.8904934749
0	4063	332699.779654294275	2047.2453312948
0	4074	333692.07607987339	2217.1510864981
0	4081	334166.515571158401	1813.9997522347
0	4094	335359.562740568095	2321.54510119
0	4099	335903.834282979393	2021.5092197992
0	4108	336656.763634923869	2085.1498540957
0	4117	337328.91689864921	1969.3541580811
0	4126	337995.360346371331	1793.6509795021
0	4135	338698.189920745814	1887.4953460414
0	4144	339426.532379211881	1956.0379669536
0	4153	340004.580219648802	1804.8954421654
0	4162	340626.764636160829	1544.6698233951
0	4173	341898.860176233598	2200.259814458
0	4180	342340.654485113942	1843.9640566707
0	4189	343638.569943001518	2259.1388546862
0	4198	344308.068023761758	2041.2491921335
0	4209	345118.807649519319	1952.0638109185
0	4220	345969.81380777436	2036.1837304663
0	4229	346552.894490025962	2195.6748737488
0	4236	347330.027916748101	2160.6404755265
0	4247	348185.170884663264	2215.3570768889
0	4252	348827.656244533161	2274.7617545072
0	4263	349853.401726763721	2416.27158341
0	4272	350533.508006203945	2348.3371215407
0	4279	350889.073662506442	1850.4710995127
0	4288	351705.772441439356	1843.9884316642
0	4301	353071.309814415897	2410.9036490321
0	4306	353496.75387712198	1960.8654758893
0	4315	354282.04062483276	1994.6441281121
0	4328	355315.334275877129	2244.0244614612
0	4335	355778.946487186502	1965.9443389624
0	4342	356434.794158348839	1931.4527294599
0	4353	357161.401818646144	1846.067542769
0	4360	357580.865514138739	1573.9927391522
0	4371	358224.975924845811	1555.1225928124
0	4382	359341.119977412772	2168.1617757306
0	4391	360189.938308345181	2527.8101616539
0	4400	360592.752107279402	2147.2102078144
0	4405	360898.206465784487	1557.0864883717
0	4418	362239.000470377531	2049.0621620323
0	4427	363041.36310825127	2448.6110009719
0	4434	363843.590339552637	2355.2543367259
0	4441	364342.348669236553	2103.348198859
0	4454	365362.064981739994	2320.7018734887
0	4461	365960.252720257293	2067.8698620759
0	4468	366671.308900415923	1954.6334335115
0	4477	367478.16349980424	2116.0985180642
0	4490	368293.2579929475	2149.1822989192
0	4497	368838.263552030574	1944.1889896989
0	4504	369506.81999539959	1922.4186794367
0	4515	370223.505777446579	1930.2477844991
0	4526	371461.420333525192	2441.8636936694
0	4535	372344.866089848828	2470.4274686985
0	4542	373135.252079274532	2538.0186277907
0	4551	373716.980605898451	2255.5602723733
0	4562	374413.542994391199	2068.6769045424
0	4567	374717.796992138054	1499.8260932509
0	4576	375493.422578461494	1726.3059883844
0	4585	376299.623515130978	1886.0805207398
0	4596	377416.616246709626	2183.5738856345
0	4605	378006.25058021399	2070.9953578189
0	4616	378942.154036369201	2216.7299664114
0	4625	379780.138025991645	2209.6232059412
0	4630	380089.579728478592	1944.195669936
0	4639	380859.485546406385	1917.3315100372
0	4648	381515.664507960928	1735.5264819693
0	4659	382284.456775942845	1751.4117938932
0	4668	383002.723096171422	1958.9005851187
0	4675	383538.956786273075	2002.1698074415
0	4688	384630.4130395409	2272.9560997803
0	4693	385280.320645216881	2156.2192178797
0	4704	385832.55721866156	1905.3394035436
0	4711	386227.213630545913	1596.800591005
0	4722	387299.232286680518	1909.6119181719
0	4733	388172.509853309049	2318.6993890442
0	4740	388771.863800799503	2059.930415405
0	4747	389513.52218245159	2059.5651137643
0	4758	390529.293048195569	2356.7831948865
0	4769	391410.681546153529	2493.8882984687
0	4776	391974.337158305599	2290.8479745034
0	4785	392496.543591935216	1961.291587539
0	4796	393626.648892508849	2215.9673463553
0	4805	394299.385901168018	2123.0986503884
0	4812	394861.077923839941	1808.0926076509
0	4821	395610.647798655584	1983.9989061467
0	4828	396252.682934515208	1953.2970333472
0	4837	396703.628272935778	1624.3798172101
0	4842	397322.369686653867	1410.5426785536
0	4857	398985.078992228985	2313.4323921986
0	4868	399551.726850215375	2001.9150871318
0	4875	400140.358659485384	1740.5069491826
0	4884	400972.993858298316	1958.1804452464
0	4891	401582.511539384752	2030.7846891694
0	4904	402579.107593093097	2180.1816404331
0	4911	403326.932098064601	2228.3011467196
0	4922	404156.075126398384	2260.7905411161
0	4927	404558.688792865753	1979.5811997727
0	4936	405020.118095492973	1651.1547415517
0	4949	406502.916645398392	2346.841519
0	4956	406941.407783841743	1932.8104696702
0	4963	407386.00967475216	1604.3459577486
0	4974	408194.239098206191	1691.3224528078
0	4985	408937.932282546564	1904.4226970058
0	4992	409336.91802243705	1712.143256329
0	5003	409964.85177646394	1505.0697506871
0	5010	410534.091127384483	1596.1588448379
0	5017	411070.775637310027	1530.5690729991
0	5030	411826.235387753725	1861.3836112898
0	5037	412219.561341963738	1618.0070903152
0	5044	412829.924949584558	1577.1047446411
0	5055	414046.18407622914	2219.9486884754
0	5062	414396.450247289643	1720.7926006056
0	5075	415761.365932133078	2306.699402025
0	5082	416485.199371492519	2382.5092601124
0	5093	417314.525365736365	2421.3510733098
0	5102	418087.160664796859	2325.7947326638
0	5111	418976.083373744071	2358.3467718679
0	5118	419444.537025271014	2130.0116595346
0	5127	420153.269410925017	2066.1087461282
0	5136	420677.488327492059	1701.404953748
0	5147	421717.215623846308	2212.0440071449
0	5154	422323.662187764452	2061.2341890112
0	5161	422840.299113281102	2019.2614068277
0	5170	423792.560629779504	2075.3450059332
0	5179	424489.585056575046	1988.4500395507
0	5190	425381.676181918041	2044.7311235592
0	5197	425899.650925258206	1789.2282504123
0	5206	426645.031974976914	1767.2028242145
0	5215	427553.251196583765	1997.3971658852
0	5224	428026.914924150365	1808.2217775285
0	5235	429250.299398554521	2272.3183498252
0	5246	430028.857999295028	2313.0255245604
0	5255	430740.713407611506	2212.0642002672
0	5262	431319.778846995937	1923.9436856937
0	5271	432044.02257842015	2015.1645791251
0	5282	432881.931774225119	2141.2183666136
0	5287	433268.063315609503	1928.9476195816
0	5298	434504.441936127875	2446.2804336101
0	5305	434953.389018215273	2071.4572439902
0	5318	436081.869621668045	2320.3770400956
0	5327	436595.024285372381	2051.0207753163
0	5336	437435.33336995173	2038.1592602469
0	5345	438157.959200581571	2076.0895789135
0	5350	438957.053809007665	2362.0295236353
0	5359	439382.363360608032	1947.0299906563
0	5370	440271.388160577079	2113.4289599955
0	5379	441049.942731298542	2003.2183269504
0	5390	441972.148259449786	2252.9185554944
0	5397	442436.178398318625	2039.965604106
0	5406	443242.071940703354	1965.5364389531
0	5409	443673.904883349351	1701.7566238996
0	5426	445252.64643807899	2385.3440690786
0	5435	446069.938201038202	2363.304124726
0	5440	446664.400874823367	2119.1101175733
0	5449	447677.277185954189	2424.6307478752
0	5462	448538.893132377451	2468.9549313392
0	5467	448846.172457793763	1941.2738231476
0	5480	450022.661800123787	2271.9433352351
0	5489	450759.857556084207	2220.9644237068
0	5496	451208.409007312766	1997.2776054405
0	5503	451835.701460391319	1813.0396602675
0	5512	452870.300967106632	2110.4434110224
0	5523	453548.250627843699	1946.342062857
0	5530	454054.490094166285	1752.3757281248
0	5543	454919.635743415018	1724.9478923623
0	5552	455648.911057692056	1927.3996150587
0	5561	456467.154628643801	2075.3668811638
0	5570	457168.312425166404	2248.6766817514
0	5575	457675.148513540661	2026.2374558486
0	5584	458273.779101809523	1806.6244731657
0	5593	458894.697931548616	1726.3855063822
0	5604	459732.845394127106	1710.9389541205
0	5615	460822.823841031676	2270.360491192
0	5620	461447.55649650473	2357.350049587
0	5631	462109.517116192763	2165.1846933179
0	5638	462772.540636081284	1949.7167950496
0	5651	463999.439001549071	2342.6628598943
0	5660	464847.144734440407	2465.32841851
0	5665	465300.418487191236	2098.0745323934
0	5676	466035.60016835112	2036.161166802
0	5685	466734.261491429096	1887.1167569887
0	5694	467647.220242582298	2198.3016493265
0	5701	468036.791588924861	1988.2464468945
0	5710	468747.491518082133	1907.172993198
0	5723	469958.021062379739	2232.7019909397
0	5730	470594.515305943823	2041.4194452111
0	5741	471447.210005018896	2351.7053912859
0	5748	472030.745717743448	2072.7246553637
0	5759	472979.519938817283	2365.9254980274
0	5768	473556.580089032685	2109.3700840138
0	5773	473878.805829165538	1591.9872787781
0	5782	474717.134083807504	1737.6141449902
0	5791	475461.322279600462	1904.7421905678
0	5800	476588.980049360579	2236.0986725427
0	5811	477220.961543312333	2140.0660889223
0	5818	478043.805784173347	2091.914541414
0	5827	478611.001507658548	1818.7666956335
0	5836	479284.565295651591	1673.4739542939
0	5845	480046.884220652318	1801.9089048263
0	5858	481051.925655081904	1993.631978659
0	5867	481763.431814638934	2161.9604633655
0	5872	482091.963018430433	1778.1097199768
0	5881	482744.870600290633	1692.9449452087
0	5892	483564.663046225942	1801.231231587
0	5903	484358.566735452078	1964.9201040622
0	5908	484703.264099685512	1830.7097899262
0	5917	485317.669376917221	1690.3398388065
0	5926	485976.085517741777	1617.5187822897
0	5939	486879.228242626452	2093.0795584805
0	5948	487580.910977069327	2209.984600218
0	5955	488117.022058367768	1969.6658193134
0	5962	488757.995878206604	1878.7676355802
0	5971	489459.186634048858	1878.2756569795
0	5984	490530.067587364503	2262.9276545718
0	5993	491311.425876198375	2223.9084931556
0	6000	491900.114176701793	2076.9206943456
0	6007	492295.467081572899	1765.3994942084
0	6018	493230.958016915286	1919.5321407169
0	6029	494110.02197228376	2113.6410885025
0	6036	494607.098381174767	1887.1587703004
0	6045	495244.953447673509	1983.3083316218
0	6056	496003.819787269497	1893.7978149857
0	6063	496485.596825787836	1642.491062684
0	6074	497419.384887116069	2144.1981697921
0	6083	498170.561898825729	2166.7421115562
0	6092	498822.236418072173	2273.3300984837
0	6101	499661.949565960133	2242.5646788441
0	6110	500472.289809817487	2301.7279109918
0	6119	501338.589783338869	2516.3533652667
0	6128	502216.879998100961	2554.9304321408
0	6133	502907.77310016569	2435.4832903482
0	6142	503323.974542459512	1985.3847591206
0	6151	504161.543953232506	1944.6639551315
0	6162	505094.831339316482	2079.4482015073
0	6169	505824.738064594606	2004.3297944125
0	6180	506475.642490061039	1800.7442940027
0	6189	507244.404049264306	1893.758755317
0	6198	507744.927256275008	1886.1525873654
0	6205	508291.595342522527	1620.0783804059
0	6214	508891.195759736041	1610.3463936131
0	6223	509555.287873512174	1585.5260014068
0	6232	510628.32546690483	2032.4427227955
0	6241	511454.709784733171	2026.6522562597
0	6252	512195.950183225835	1928.0077931005
0	6261	512629.11150176082	1555.5336428806
0	6268	513386.983715929131	1761.8838055059
0	6277	514338.808071054559	2134.5600830857
0	6288	515088.03211664785	2041.5680341423
0	6297	515830.277338810306	1961.653275881
0	6308	516826.05716069233	2327.0760070067
0	6317	517698.995147366117	2460.3431502823
0	6322	518483.975733351003	2440.4122733977
0	6333	518992.1276499052	2166.0704892129
0	6340	519737.320672860409	2038.3255254943
0	6351	520763.121980940963	2175.4699983168
0	6360	521670.884669199625	2209.1200562194
0	6367	522035.843160795088	1878.4149811137
0	6378	522815.927373105699	1946.9848425128
0	6385	523288.996959244871	1578.9367607329
0	6394	524132.529225200455	1850.1082635485
0	6405	525088.517729798372	2207.0827248506
0	6416	526003.909898456226	2351.0452263057
0	6421	526674.274045508395	2133.9211496059
0	6434	527692.586734565015	2301.8777464516
0	6439	528369.184123026247	2365.27422457
0	6448	529070.273552835028	2229.734480381
0	6457	529629.040056746494	1936.4533221815
0	6470	530591.387201612856	1998.9841698669
0	6475	530940.887013031211	1772.5530005526
0	6486	531998.683757241856	1988.2926584221
0	6493	532748.048357432749	2156.6611558199
0	6504	533494.504602765705	2047.5709204562
0	6515	534429.820495890494	2095.602247864
0	6520	535220.538629405241	2170.64425922
0	6529	535821.822621440556	1967.1665291302
0	6538	536789.715670561459	2359.895174671
0	6551	537592.225395049941	2302.5240902323
0	6558	538116.316972207319	1938.8033776078
0	6565	538514.117684494745	1617.290868843
0	6574	539328.253013407853	1736.0276183579
0	6585	540210.910356044811	1740.085552074
0	6592	540544.350023008925	1659.0899156872
0	6603	541790.28160320599	2107.1758689824
0	6610	542242.56125399847	1792.5258095842
0	6623	543501.96706778374	2171.3411412667
0	6630	543875.516065629241	2061.5836193785
0	6637	544536.747798090842	1903.4791066311
0	6650	545226.294915285003	1724.3278475013
0	6655	545547.796716028866	1420.0370297302
0	6668	546797.244951082436	1999.7142205015
0	6677	547456.384731223849	2230.0898159388
0	6682	547864.615600928706	1871.4956448879
0	6687	548227.651195228142	1430.4062441457
0	6704	549731.65523260836	2275.2705013845
0	6711	550488.771601812956	2134.348920593
0	6722	551166.81764801037	2273.3463040553
0	6729	551482.903951685917	1751.2487190776
0	6740	552221.170055307489	1682.3003782891
0	6749	553089.269805327099	1922.4521573167
0	6756	553556.252872059163	1898.5659715254
0	6763	553986.091962922406	1764.9219076149
0	6772	554768.194143008482	1678.9243376814
0	6781	555684.264629334252	2079.9247015268
0	6790	556111.66627504867	1847.6251162123
0	6801	557054.900240991307	1960.7580400072
0	6808	557953.232172410978	2106.0450650286
0	6821	559073.909415397835	2552.6750356425
0	6830	559963.780105859083	2566.4770846255
0	6839	560523.924011690584	2250.4824675154
0	6844	560898.881877539721	1824.9724621419
0	6855	561617.110457131681	1653.3303512726
0	6864	562499.332707747859	1975.4086960573
0	6873	563080.10158063848	1912.3388787266
0	6884	563909.768301202026	1934.6785238944
0	6893	564762.440007878509	2082.9129996244
0	6900	565287.075327057433	1844.8959312402
0	6907	565680.498326523271	1770.7300253212
0	6916	566242.921719281045	1480.4817114025
0	6927	567366.387206548866	1968.8131100032
0	6936	568123.962535522919	1942.6886596251
0	6945	568941.928907856387	2360.6468961574
0	6954	569714.931252971334	2247.2790956497
0	6965	570654.241700889586	2299.3127744179
0	6974	571529.39975713384	2383.682157984
0	6981	572152.554993890269	2361.7942022625
0	6990	572722.950154077305	2068.7084531877
0	6999	573779.408918414308	2250.0091612805
0	7008	574350.68512167786	1980.6584880687
0	7017	575297.253020759716	2280.625067465
0	7028	576100.411737570583	2231.3144907821
0	7033	576410.090992972299	1708.7453034706
0	7042	577230.562474764927	1905.8619844727
0	7053	578009.796968707859	1909.3852311373
0	7060	578761.036368459508	1798.4608787578
0	7071	579788.455686299175	2205.635825498
0	7080	580645.917842024982	2299.9002406374
0	7087	581258.196011418522	2160.5985231232
0	7100	582155.416500801266	2246.333683189
0	7109	582950.580162741289	2213.9529251028
0	7116	583712.368125747935	2268.4909754433
0	7125	584476.446218602405	2321.0297178011
0	7134	585202.644065441609	2252.0639027003
0	7141	585515.818505035759	1665.8760233782
0	7150	586610.613075457559	2037.8635542467
0	7159	587036.039117071824	1766.4269730449
0	7170	587919.378691585781	1869.3860397208
0	7179	588532.617472205358	1887.9981417675
0	7186	589311.01844552909	1791.7432629503
0	7195	589828.073294833349	1730.3660418838
0	7204	590316.030919924425	1770.6741530914
0	7213	591196.647052886012	1821.0207256023
0	7222	591795.398586709099	1534.7282040864
0	7233	592968.823585426482	1989.7741730791
0	7240	593750.353416334885	2034.1945249122
0	7251	594557.376463059384	2227.8816507664
0	7262	595466.768346307847	2298.8065355457
0	7267	596001.558567909572	1960.4349985253
0	7278	596795.654797554064	2090.1261047926
0	7289	597620.35309569915	2153.5847493913
0	7294	598149.621738446925	2036.4053109661
0	7303	598678.234809776817	1686.7326507345
0	7316	599436.451120488394	1816.0980247892
0	7323	600107.786676613662	1628.4575917292
0	7332	600946.58572738995	2004.5952900778
0	7339	601847.0828714781	2410.6317509897
0	7348	602309.717627707917	2053.2728574704
0	7359	602869.059018977035	1849.814496981
0	7368	603601.448208885316	1699.2337842006
0	7379	604628.445772407625	2167.691812478
1	3174	260357.537595788034	351
1	3181	261115.901122195663	352
1	3194	262258.417137013765	353
1	3199	262821.324765728803	354
1	3212	263677.96139954591	355
1	3217	263984.326190315204	356
1	3226	264906.881632329913	357
1	3235	265772.709065722319	358
1	3244	266150.875633070262	359
1	3253	267202.657306054624	360
1	3262	268308.555441163497	361
1	3275	269256.99985879475	362
1	3282	269735.908054746704	363
1	3291	270391.866493737342	364
1	3300	271051.583256572501	365
1	3309	272105.700000375525	366
1	3320	272912.830732343734	367
1	3325	273405.288375495017	368
1	3334	274428.031903831304	369
1	3343	274908.766165841387	370
1	3354	275651.531391078622	371
1	3365	276588.254445092768	372
1	3372	277006.880234694124	373
1	3383	277954.902473604323	374
1	3388	278384.493411658348	375
1	3397	279289.453649986552	376
1	3406	279721.92309759559	377
1	3419	280941.854732483643	378
1	3428	281586.436019651609	379
1	3433	281992.836866760644	380
1	3442	282793.015451822447	381
1	3451	283455.854570260288	382
1	3460	284236.786730540933	383
1	3469	285149.788153963181	384
1	3482	286169.186647189799	385
1	3487	286673.636485263723	386
1	3496	287357.74541837165	387
1	3507	288266.3561451249	388
1	3514	288631.150207389164	389
1	3523	289661.148800700921	390
1	3534	290502.347562555241	391
1	3541	291037.595860613527	392
1	3552	292026.761888712662	393
1	3559	292468.944182060676	394
1	3572	293765.704771969485	395
1	3577	294132.422924274596	396
1	3588	295316.553457779827	397
1	3597	295689.474624115991	398
1	3606	296455.252889217827	399
1	3615	297201.10104549678	400
1	3622	297756.48293592969	401
1	3631	298462.339154770616	402
1	3640	298967.396070621927	403
1	3651	299902.063688356448	404
1	3658	300499.934514658545	405
1	3669	301374.866207549368	406
1	3678	302118.610631581415	407
1	3687	302797.287069680189	408
1	3694	303525.254033971598	409
1	3705	304169.634553883245	410
1	3714	304743.71909131298	411
1	3721	305216.148263588568	412
1	3732	306302.306716516635	413
1	3743	307134.058406995631	414
1	3750	307860.90983496981	415
1	3759	308571.703813271618	416
1	3766	309209.529479406795	417
1	3777	310294.643352180741	418
1	3788	310896.735161310083	419
1	3795	311480.250392016045	420
1	3804	312214.134321967162	421
1	3811	312857.153099589071	422
1	3820	313457.828941661885	423
1	3829	313989.468483533731	424
1	3838	314712.477371469161	425
1	3847	315188.461488392225	426
1	3858	316260.246600536651	427
1	3869	317241.178478579989	428
1	3874	317678.062925627476	429
1	3883	318333.829913428074	430
1	3896	319381.45661498422	431
1	3905	320037.623983668184	432
1	3910	320499.539768463021	433
1	3923	321410.494270501679	434
1	3928	321923.626984795576	435
1	3937	322753.776249848327	436
1	3948	323438.650887273272	437
1	3959	324328.101635165533	438
1	3964	324672.324807615971	439
1	3973	325023.396115656963	440
1	3986	325751.632472919321	441
1	3993	326344.610711652806	442
1	4002	327255.082879168934	443
1	4013	328198.303525988034	444
1	4018	328549.5375341736	445
1	4027	329550.699761929012	446
1	4038	330600.05488288591	447
1	4049	331474.924993375338	448
1	4054	332162.44566072712	449
1	4063	332699.779654294275	450
1	4074	333692.07607987339	451
1	4081	334166.515571158401	452
1	4094	335359.562740568095	453
1	4099	335903.834282979393	454
1	4108	336656.763634923869	455
1	4117	337328.91689864921	456
1	4126	337995.360346371331	457
1	4135	338698.189920745814	458
1	4144	339426.532379211881	459
1	4153	340004.580219648802	460
1	4162	340626.764636160829	461
1	4173	341898.860176233598	462
1	4180	342340.654485113942	463
1	4189	343638.569943001518	464
1	4198	344308.068023761758	465
1	4209	345118.807649519319	466
1	4220	345969.81380777436	467
1	4229	346552.894490025962	468
1	4236	347330.027916748101	469
1	4247	348185.170884663264	470
1	4252	348827.656244533161	471
1	4263	349853.401726763721	472
1	4272	350533.508006203945	473
1	4279	350889.073662506442	474
1	4288	351705.772441439356	475
1	4301	353071.309814415897	476
1	4306	353496.75387712198	477
1	4315	354282.04062483276	478
1	4328	355315.334275877129	479
1	4335	355778.946487186502	480
1	4342	356434.794158348839	481
1	4353	357161.401818646144	482
1	4360	357580.865514138739	483
1	4371	358224.975924845811	484
1	4382	359341.119977412772	485
1	4391	360189.938308345181	486
1	4400	360592.752107279402	487
1	4405	360898.206465784487	488
1	4418	362239.000470377531	489
1	4427	363041.36310825127	490
1	4434	363843.590339552637	491
1	4441	364342.348669236553	492
1	4454	365362.064981739994	493
1	4461	365960.252720257293	494
1	4468	366671.308900415923	495
1	4477	367478.16349980424	496
1	4490	368293.2579929475	497
1	4497	368838.263552030574	498
1	4504	369506.81999539959	499
1	4515	370223.505777446579	500
1	4526	371461.420333525192	501
1	4535	372344.866089848828	502
1	4542	373135.252079274532	503
1	4551	373716.980605898451	504
1	4562	374413.542994391199	505
1	4567	374717.796992138054	506
1	4576	375493.422578461494	507
1	4585	376299.623515130978	508
1	4596	377416.616246709626	509
1	4605	378006.25058021399	510
1	4616	378942.154036369201	511
1	4625	379780.138025991645	512
1	4630	380089.579728478592	513
1	4639	380859.485546406385	514
1	4648	381515.664507960928	515
1	4659	382284.456775942845	516
1	4668	383002.723096171422	517
1	4675	383538.956786273075	518
1	4688	384630.4130395409	519
1	4693	385280.320645216881	520
1	4704	385832.55721866156	521
1	4711	386227.213630545913	522
1	4722	387299.232286680518	523
1	4733	388172.509853309049	524
1	4740	388771.863800799503	525
1	4747	389513.52218245159	526
1	4758	390529.293048195569	527
1	4769	391410.681546153529	528
1	4776	391974.337158305599	529
1	4785	392496.543591935216	530
1	4796	393626.648892508849	531
1	4805	394299.385901168018	532
1	4812	394861.077923839941	533
1	4821	395610.647798655584	534
1	4828	396252.682934515208	535
1	4837	396703.628272935778	536
1	4842	397322.369686653867	537
1	4857	398985.078992228985	538
1	4868	399551.726850215375	539
1	4875	400140.358659485384	540
1	4884	400972.993858298316	541
1	4891	401582.511539384752	542
1	4904	402579.107593093097	543
1	4911	403326.932098064601	544
1	4922	404156.075126398384	545
1	4927	404558.688792865753	546
1	4936	405020.118095492973	547
1	4949	406502.916645398392	548
1	4956	406941.407783841743	549
1	4963	407386.00967475216	550
1	4974	408194.239098206191	551
1	4985	408937.932282546564	552
1	4992	409336.91802243705	553
1	5003	409964.85177646394	554
1	5010	410534.091127384483	555
1	5017	411070.775637310027	556
1	5030	411826.235387753725	557
1	5037	412219.561341963738	558
1	5044	412829.924949584558	559
1	5055	414046.18407622914	560
1	5062	414396.450247289643	561
1	5075	415761.365932133078	562
1	5082	416485.199371492519	563
1	5093	417314.525365736365	564
1	5102	418087.160664796859	565
1	5111	418976.083373744071	566
1	5118	419444.537025271014	567
1	5127	420153.269410925017	568
1	5136	420677.488327492059	569
1	5147	421717.215623846308	570
1	5154	422323.662187764452	571
1	5161	422840.299113281102	572
1	5170	423792.560629779504	573
1	5179	424489.585056575046	574
1	5190	425381.676181918041	575
1	5197	425899.650925258206	576
1	5206	426645.031974976914	577
1	5215	427553.251196583765	578
1	5224	428026.914924150365	579
1	5235	429250.299398554521	580
1	5246	430028.857999295028	581
1	5255	430740.713407611506	582
1	5262	431319.778846995937	583
1	5271	432044.02257842015	584
1	5282	432881.931774225119	585
1	5287	433268.063315609503	586
1	5298	434504.441936127875	587
1	5305	434953.389018215273	588
1	5318	436081.869621668045	589
1	5327	436595.024285372381	590
1	5336	437435.33336995173	591
1	5345	438157.959200581571	592
1	5350	438957.053809007665	593
1	5359	439382.363360608032	594
1	5370	440271.388160577079	595
1	5379	441049.942731298542	596
1	5390	441972.148259449786	597
1	5397	442436.178398318625	598
1	5406	443242.071940703354	599
1	5409	443673.904883349351	600
1	5426	445252.64643807899	601
1	5435	446069.938201038202	602
1	5440	446664.400874823367	603
1	5449	447677.277185954189	604
1	5462	448538.893132377451	605
1	5467	448846.172457793763	606
1	5480	450022.661800123787	607
1	5489	450759.857556084207	608
1	5496	451208.409007312766	609
1	5503	451835.701460391319	610
1	5512	452870.300967106632	611
1	5523	453548.250627843699	612
1	5530	454054.490094166285	613
1	5543	454919.635743415018	614
1	5552	455648.911057692056	615
1	5561	456467.154628643801	616
1	5570	457168.312425166404	617
1	5575	457675.148513540661	618
1	5584	458273.779101809523	619
1	5593	458894.697931548616	620
1	5604	459732.845394127106	621
1	5615	460822.823841031676	622
1	5620	461447.55649650473	623
1	5631	462109.517116192763	624
1	5638	462772.540636081284	625
1	5651	463999.439001549071	626
1	5660	464847.144734440407	627
1	5665	465300.418487191236	628
1	5676	466035.60016835112	629
1	5685	466734.261491429096	630
1	5694	467647.220242582298	631
1	5701	468036.791588924861	632
1	5710	468747.491518082133	633
1	5723	469958.021062379739	634
1	5730	470594.515305943823	635
1	5741	471447.210005018896	636
1	5748	472030.745717743448	637
1	5759	472979.519938817283	638
1	5768	473556.580089032685	639
1	5773	473878.805829165538	640
1	5782	474717.134083807504	641
1	5791	475461.322279600462	642
1	5800	476588.980049360579	643
1	5811	477220.961543312333	644
1	5818	478043.805784173347	645
1	5827	478611.001507658548	646
1	5836	479284.565295651591	647
1	5845	480046.884220652318	648
1	5858	481051.925655081904	649
1	5867	481763.431814638934	650
1	5872	482091.963018430433	651
1	5881	482744.870600290633	652
1	5892	483564.663046225942	653
1	5903	484358.566735452078	654
1	5908	484703.264099685512	655
1	5917	485317.669376917221	656
1	5926	485976.085517741777	657
1	5939	486879.228242626452	658
1	5948	487580.910977069327	659
1	5955	488117.022058367768	660
1	5962	488757.995878206604	661
1	5971	489459.186634048858	662
1	5984	490530.067587364503	663
1	5993	491311.425876198375	664
1	6000	491900.114176701793	665
1	6007	492295.467081572899	666
1	6018	493230.958016915286	667
1	6029	494110.02197228376	668
1	6036	494607.098381174767	669
1	6045	495244.953447673509	670
1	6056	496003.819787269497	671
1	6063	496485.596825787836	672
1	6074	497419.384887116069	673
1	6083	498170.561898825729	674
1	6092	498822.236418072173	675
1	6101	499661.949565960133	676
1	6110	500472.289809817487	677
1	6119	501338.589783338869	678
1	6128	502216.879998100961	679
1	6133	502907.77310016569	680
1	6142	503323.974542459512	681
1	6151	504161.543953232506	682
1	6162	505094.831339316482	683
1	6169	505824.738064594606	684
1	6180	506475.642490061039	685
1	6189	507244.404049264306	686
1	6198	507744.927256275008	687
1	6205	508291.595342522527	688
1	6214	508891.195759736041	689
1	6223	509555.287873512174	690
1	6232	510628.32546690483	691
1	6241	511454.709784733171	692
1	6252	512195.950183225835	693
1	6261	512629.11150176082	694
1	6268	513386.983715929131	695
1	6277	514338.808071054559	696
1	6288	515088.03211664785	697
1	6297	515830.277338810306	698
1	6308	516826.05716069233	699
1	6317	517698.995147366117	700
1	6322	518483.975733351003	701
1	6333	518992.1276499052	702
1	6340	519737.320672860409	703
1	6351	520763.121980940963	704
1	6360	521670.884669199625	705
1	6367	522035.843160795088	706
1	6378	522815.927373105699	707
1	6385	523288.996959244871	708
1	6394	524132.529225200455	709
1	6405	525088.517729798372	710
1	6416	526003.909898456226	711
1	6421	526674.274045508395	712
1	6434	527692.586734565015	713
1	6439	528369.184123026247	714
1	6448	529070.273552835028	715
1	6457	529629.040056746494	716
1	6470	530591.387201612856	717
1	6475	530940.887013031211	718
1	6486	531998.683757241856	719
1	6493	532748.048357432749	720
1	6504	533494.504602765705	721
1	6515	534429.820495890494	722
1	6520	535220.538629405241	723
1	6529	535821.822621440556	724
1	6538	536789.715670561459	725
1	6551	537592.225395049941	726
1	6558	538116.316972207319	727
1	6565	538514.117684494745	728
1	6574	539328.253013407853	729
1	6585	540210.910356044811	730
1	6592	540544.350023008925	731
1	6603	541790.28160320599	732
1	6610	542242.56125399847	733
1	6623	543501.96706778374	734
1	6630	543875.516065629241	735
1	6637	544536.747798090842	736
1	6650	545226.294915285003	737
1	6655	545547.796716028866	738
1	6668	546797.244951082436	739
1	6677	547456.384731223849	740
1	6682	547864.615600928706	741
1	6687	548227.651195228142	742
1	6704	549731.65523260836	743
1	6711	550488.771601812956	744
1	6722	551166.81764801037	745
1	6729	551482.903951685917	746
1	6740	552221.170055307489	747
1	6749	553089.269805327099	748
1	6756	553556.252872059163	749
1	6763	553986.091962922406	750
1	6772	554768.194143008482	751
1	6781	555684.264629334252	752
1	6790	556111.66627504867	753
1	6801	557054.900240991307	754
1	6808	557953.232172410978	755
1	6821	559073.909415397835	756
1	6830	559963.780105859083	757
1	6839	560523.924011690584	758
1	6844	560898.881877539721	759
1	6855	561617.110457131681	760
1	6864	562499.332707747859	761
1	6873	563080.10158063848	762
1	6884	563909.768301202026	763
1	6893	564762.440007878509	764
1	6900	565287.075327057433	765
1	6907	565680.498326523271	766
1	6916	566242.921719281045	767
1	6927	567366.387206548866	768
1	6936	568123.962535522919	769
1	6945	568941.928907856387	770
1	6954	569714.931252971334	771
1	6965	570654.241700889586	772
1	6974	571529.39975713384	773
1	6981	572152.554993890269	774
1	6990	572722.950154077305	775
1	6999	573779.408918414308	776
1	7008	574350.68512167786	777
1	7017	575297.253020759716	778
1	7028	576100.411737570583	779
1	7033	576410.090992972299	780
1	7042	577230.562474764927	781
1	7053	578009.796968707859	782
1	7060	578761.036368459508	783
1	7071	579788.455686299175	784
1	7080	580645.917842024982	785
1	7087	581258.196011418522	786
1	7100	582155.416500801266	787
1	7109	582950.580162741289	788
1	7116	583712.368125747935	789
1	7125	584476.446218602405	790
1	7134	585202.644065441609	791
1	7141	585515.818505035759	792
1	7150	586610.613075457559	793
1	7159	587036.039117071824	794
1	7170	587919.378691585781	795
1	7179	588532.617472205358	796
1	7186	589311.01844552909	797
1	7195	589828.073294833349	798
1	7204	590316.030919924425	799
1	7213	591196.647052886012	800
1	7222	591795.398586709099	801
1	7233	592968.823585426482	802
1	7240	593750.353416334885	803
1	7251	594557.376463059384	804
1	7262	595466.768346307847	805
1	7267	596001.558567909572	806
1	7278	596795.654797554064	807
1	7289	597620.35309569915	808
1	7294	598149.621738446925	809
1	7303	598678.234809776817	810
1	7316	599436.451120488394	811
1	7323	600107.786676613662	812
1	7332	600946.58572738995	813
1	7339	601847.0828714781	814
1	7348	602309.717627707917	815
1	7359	602869.059018977035	816
1	7368	603601.448208885316	817
1	7379	604628.445772407625	818

