version 2
run Pipelined_3Teachers-71-20190105-10:57:34-16240
attr configname Pipelined_3Teachers
attr datetime 20190105-10:57:34
attr experiment Pipelined_3Teachers
attr inifile ../simulations/omnetpp.ini
attr iterationvars "$0=\"uniform\""
attr iterationvarsf uniform-
attr measurement "$0=\"uniform\""
attr network PipelinedExamSession
attr processid 16240
attr repetition 71
attr replication #71
attr resultdir results
attr runnumber 71
attr seedset 71
param **.teachersNumber 3
param **.answerTimeDistribution "\"uniform\""
param **.minUniform 300
param **.maxUniform 900
param **.scaleLognormal 6.2854
param **.shapeLognormal 0.4724

vector 0 PipelinedExamSession examinationTime:vector ETV
attr source examFinished
vector 1 PipelinedExamSession studentID:vector ETV
attr source student
0	3145	260233.753929426919	1694.205621304
0	3154	260967.837918782632	1708.8344902731
0	3165	262303.083578869726	2154.3875687756
0	3172	262709.647224470999	1814.0742806252
0	3185	263767.977217678007	2171.5529068373
0	3194	264413.188253017169	2108.8703528512
0	3203	265256.067014671889	2176.6722887289
0	3210	265950.083182286498	2182.1059646085
0	3217	266491.617186740068	2078.4289337229
0	3226	266866.553131258142	1610.4861165863
0	3237	267604.985031718415	1492.3561780248
0	3248	268641.93663136105	2005.6996447966
0	3253	269273.048329632757	2022.9583506938
0	3262	269858.596044452889	1812.350442633
0	3275	271140.999752841918	2499.0631214809
0	3284	271750.16227760355	2237.5178192742
0	3291	272245.742151606856	1896.0059346166
0	3302	272944.437363417847	1803.4376105759
0	3307	273480.283020716188	1730.1207431126
0	3320	274347.047821618645	2021.5773248579
0	3325	275098.449433688103	2154.0120702703
0	3334	275590.010363375797	1969.2711620126
0	3345	276485.06483430977	2138.0170126911
0	3356	277437.781690713046	2219.1989898216
0	3363	278085.382311372114	2280.8468028903
0	3374	279137.591025000466	2464.8469520733
0	3379	279563.387719681514	2125.6060289685
0	3390	280729.713910818128	2418.2500110939
0	3397	281438.872672850294	2301.2816478498
0	3406	282044.398510688944	2059.4236501493
0	3417	283027.792140701814	2153.3601930365
0	3424	283909.909979486866	2194.4620982744
0	3435	284405.019917478814	1790.718643181
0	3442	285077.157486649259	1648.6307265703
0	3453	285735.854603955551	1734.771183366
0	3460	286256.702275062009	1549.4211710058
0	3469	287032.225086679711	1686.5911179688
0	3478	287716.922284383356	1752.2581631318
0	3491	289258.200949290796	2427.6010247413
0	3498	289939.773811446532	2266.8908460997
0	3507	290719.626747351169	2230.0474232063
0	3516	291190.376454452082	1932.1755051613
0	3527	291917.87495445463	1864.4896999933
0	3536	292793.643080955401	2055.5682707112
0	3543	293468.328146031156	2074.8173641507
0	3550	293858.359317155585	1940.484362701
0	3559	294587.090729316727	1793.4476483613
0	3572	295392.052459577129	1703.7132452242
0	3581	296190.053764963553	1880.599368643
0	3586	296761.844050604881	2048.2367455959
0	3595	297330.702915228934	1938.6504556518
0	3604	298338.15541737716	2148.1016524136
0	3615	299086.53804003264	2124.9465919565
0	3622	299459.478012286157	1611.2323465291
0	3633	300460.24282691072	1750.4560926463
0	3640	300984.769664565132	1862.3632090632
0	3651	301978.196930279985	2062.7811478917
0	3658	302527.272288640991	1903.7169907708
0	3669	303572.605853481249	2333.5832521319
0	3678	304102.739200880782	2055.2678614855
0	3687	305083.175804279776	2192.3766489141
0	3694	305756.768383830817	1994.1860892344
0	3703	306715.993866417588	2302.4187904783
0	3714	307638.426071684839	2329.1892018635
0	3725	308418.829086329819	2311.4878744818
0	3734	309236.249759607048	2263.5209988803
0	3743	310068.99001649584	2388.3464019746
0	3748	310533.16862625073	2114.3395399209
0	3757	311402.775662345843	2166.5259027388
0	3766	312421.553250867904	2352.5632343721
0	3775	312794.652120117129	1859.8025235347
0	3786	314428.936875751274	2636.5074408241
0	3795	315055.360936559768	2388.2782128174
0	3804	315785.598740587042	2241.2692214828
0	3813	316527.550479909436	2088.4259681683
0	3822	317346.825994178684	2051.3266538735
0	3831	317996.083209151434	2035.5071738362
0	3838	318383.602331439065	1650.3046578728
0	3847	318911.595542449536	1524.9774606898
0	3860	320419.964655814724	2343.1923764292
0	3869	321011.1162987538	2258.4156678524
0	3878	321618.56454103257	2033.7299520615
0	3887	322470.18784331161	2050.2231874969
0	3896	323272.495817486229	2261.3795187324
0	3901	323729.944664379614	2111.380123347
0	3912	324568.045842088791	2097.8579987772
0	3919	325207.87259959619	1935.37678211
0	3930	326042.847915831985	2098.8111538813
0	3937	326527.562832646104	1767.1772022732
0	3948	327686.543698282946	2107.0880883839
0	3955	328140.77863376591	1974.8541515786
0	3968	328947.433042014051	1905.8372926433
0	3975	329304.292935552109	1546.1415329017
0	3986	330055.326974345405	1535.8220458031
0	3991	330356.172381760586	1408.7393397465
0	4002	330784.4370407984	1420.010372065
0	4009	331337.921331357245	1282.5943570118
0	4020	332197.66280818734	1736.4240710624
0	4029	333024.911917420138	2024.2664849851
0	4040	333737.97669927593	2019.959648978
0	4049	334377.751036081497	1942.1617529355
0	4056	334916.363176144693	1672.9692051653
0	4063	335312.004105560515	1574.0274062846
0	4074	336331.385605037247	1953.6345689557
0	4083	337277.070531388779	2191.3500117604
0	4090	337868.004175275599	2060.7838897035
0	4103	338567.079031281208	1887.3021943029
0	4110	339339.377184491639	1854.350309819
0	4117	339642.010778049042	1582.5018231757
0	4128	340840.32497517768	2273.2459438965
0	4135	341459.193626884405	2002.9455316253
0	4144	342201.749305939336	1987.6544291619
0	4157	343151.245000585949	2064.2055492383
0	4164	343851.202615862748	2023.5693412833
0	4173	344716.951202787495	2242.7613595035
0	4180	345318.048365134782	2166.8033645488
0	4189	346005.27475783605	2025.8577346802
0	4198	346580.348939867726	1719.5102320053
0	4211	347410.839689802414	1869.0486875363
0	4218	347979.609313560685	1759.8781807814
0	4227	348782.881717337331	2167.5098923501
0	4234	349478.940768633073	2068.1010788307
0	4243	350062.924059201068	1786.0129157547
0	4252	350915.2989580762	1759.0896022506
0	4261	351679.983896669036	2026.2266638689
0	4272	352241.058907052538	1744.7760343552
0	4281	352921.318106213621	1691.6419107467
0	4288	353508.056621672622	1711.3654908724
0	4301	354563.27951098796	2243.6256125104
0	4310	355414.13649972532	2459.2822857667
0	4315	355888.827505521514	2131.5962213092
0	4324	356748.571596248114	2185.2920852602
0	4335	357564.097875449844	2149.9613757245
0	4342	357949.533407064192	1702.0630422514
0	4351	358663.967582210936	1548.2952940743
0	4360	359260.41721771475	1573.219598271
0	4373	360341.877669934221	1949.4636693969
0	4378	360646.622525341846	1687.249964755
0	4387	361470.442501595282	1962.4812268652
0	4400	362543.402877822556	2201.5252078883
0	4405	363038.214048603587	1916.7467381805
0	4414	363757.814921485298	2000.6406330038
0	4427	364491.781327128448	1948.3784493059
0	4434	365184.846620494538	1856.9548704196
0	4445	365949.558760877737	2128.5325848497
0	4454	366801.003888482266	2309.2225613538
0	4461	367351.273239729964	2055.7069329545
0	4468	367884.028245555275	1934.4694846775
0	4477	368457.841747999229	1656.837859517
0	4488	369718.734232010358	2059.5677187201
0	4499	370219.438280258366	1987.1946352534
0	4504	370519.772905670145	1563.0416764878
0	4513	371436.42648635436	1690.7215329353
0	4526	372440.33744400371	2220.8991637453
0	4531	372745.100226625839	1700.8207265753
0	4544	373700.088838068807	2007.5060108677
0	4549	374251.894886512348	1811.5574425086
0	4558	374931.992520159149	1607.1364420932
0	4567	375586.734038963952	1886.6452008951
0	4580	376857.704863976726	2288.8119400945
0	4587	377500.690262485334	2426.7149607651
0	4598	378325.659936061168	2359.2587480787
0	4605	378721.685247262979	1863.9803832863
0	4612	379081.946583604479	1541.165067628
0	4621	380145.313972234765	1819.6540361736
0	4630	380857.764362264464	1903.4303194843
0	4639	381491.185220517258	1682.7966984361
0	4652	382696.868970058898	1989.3442021217
0	4657	383143.203753512392	1964.9452113546
0	4668	383982.048154855186	1940.9813796636
0	4675	384290.605183504561	1593.7362134457
0	4686	385095.835508080239	1500.4497370217
0	4693	385874.676411598961	1892.2464789357
0	4704	386755.219277925828	2115.51392111
0	4711	387404.596148058811	1971.0365050938
0	4720	388243.957057781556	2047.7430732921
0	4733	389325.239560799712	2277.6897809934
0	4740	389798.058987082952	1893.1309742387
0	4751	390754.744951101059	2017.4862492364
0	4760	391650.819605123291	2325.5800443236
0	4769	392356.722427345852	2371.433105506
0	4776	392798.958982201333	2044.2140311003
0	4785	393611.933272937353	1961.1136678141
0	4794	394288.535482808988	1931.8130554631
0	4805	395082.026189798529	2156.9437713828
0	4810	395621.443918347399	1950.6494354457
0	4823	396592.658429173793	2304.0634690784
0	4832	397427.086346503388	2345.0601567049
0	4839	398189.739634702023	2226.7168294173
0	4848	399054.039214085828	2461.380784912
0	4855	399362.999764177989	1935.9134176746
0	4868	400618.667889246759	2301.1456175242
0	4873	401128.122926875991	2004.4476702344
0	4884	401869.692501146388	2055.6178837549
0	4891	402493.769766809461	1875.1018775627
0	4900	402948.018658021507	1517.4283614848
0	4911	404158.769183792216	2238.1034479011
0	4922	405050.380672607613	2335.4635998141
0	4931	405791.605892730919	2204.2890010402
0	4936	406216.842517303345	2005.4336349014
0	4945	406878.879691287917	1828.4990186803
0	4950	407479.573924094482	1687.9680313636
0	4965	408761.349025368733	2139.6412075963
0	4974	409820.070782443551	2298.7466052175
0	4981	410391.000132774976	2059.45471921
0	4992	411057.763328729239	1931.9888301194
0	5001	411907.872107718182	2014.8199070245
0	5008	412485.278845159379	1768.0011105258
0	5019	413205.168768251356	1799.159812415
0	5026	414177.57038944405	2227.733767312
0	5035	414499.951609829483	1720.5650290009
0	5044	415458.078945754138	1845.9614081774
0	5055	416480.241632647854	2017.9319478571
0	5062	417047.905263584149	1912.3871010728
0	5075	418115.074136992958	2114.6757092793
0	5084	418998.873082269025	2307.6400368009
0	5091	419460.505981603679	1891.6097792331
0	5100	420161.792256776285	2046.7181197833
0	5107	420714.367714617443	1715.4946323484
0	5116	421415.815747249913	1683.4572836291
0	5129	422231.389151746449	1955.9230449144
0	5138	423064.109525084537	1907.2732065339
0	5145	423455.996910575819	1626.5568846837
0	5156	424204.508016491351	1973.1188647449
0	5161	424525.632345629898	1461.5228205454
0	5172	425809.348044404802	2208.5053961724
0	5183	426690.458731306759	2485.9507148154
0	5188	427361.832301039291	2308.65540253
0	5201	428099.848408252043	2181.3826825004
0	5208	428745.652230642778	2055.193499336
0	5215	429419.397479016376	1885.465421062
0	5226	430136.733288830188	2036.8848805781
0	5237	431131.201354041738	2219.1435791552
0	5242	431501.975792460186	1730.7450532448
0	5253	432358.756634965581	2018.2837719563
0	5264	433252.425921382425	2121.2245673407
0	5271	434043.008455401329	2149.5368566364
0	5280	434867.892697965769	2440.2700396255
0	5287	435260.92154933144	2008.495627949
0	5296	435922.189132310494	1875.6107342429
0	5307	436866.388513846366	1994.1483061295
0	5314	437364.983911626084	1698.6510390881
0	5323	438202.503400063186	2009.5540773589
0	5334	438845.317478477999	1870.9243933205
0	5341	440028.271328005984	2373.6149429809
0	5352	440561.119483737319	2070.6179756206
0	5359	440907.679971959486	1539.6378014702
0	5372	442171.770077571317	2042.0225382317
0	5381	442728.832130692943	1974.9014728703
0	5386	443082.760446611836	1678.1607713085
0	5395	443687.671715905934	1515.9016383346
0	5406	444430.362309515521	1701.5301788226
0	5417	445333.582116896331	2073.7163288053
0	5424	445921.228468744129	2116.2811006419
0	5435	446634.656195109755	1987.1544856578
0	5444	447472.342576598794	2138.7604597025
0	5453	448306.010696897329	2300.5105242133
0	5458	448995.314804697455	2360.6586095877
0	5471	449927.292370889382	2454.9497942906
0	5478	450412.542602978693	2106.5319060814
0	5487	450959.837616607593	1845.2831181698
0	5496	451724.835429713176	1797.5430588238
0	5503	452336.905418336438	1746.4268225245
0	5512	453175.549904862465	2120.9302520379
0	5521	453780.070645222487	1910.781342024
0	5530	454780.828710598918	2074.8096365947
0	5541	455960.364714637446	2420.1537392568
0	5548	456273.682227172005	1932.718694536
0	5557	457008.306510932792	1782.3495031334
0	5568	457906.614264054272	1918.4059421998
0	5575	458514.997355081189	1886.2432246562
0	5588	459693.98595727985	2352.4384684861
0	5593	460158.458431530792	2003.7233222276
0	5602	460721.859702095438	1914.7797946818
0	5611	461555.256308522124	1861.2703512423
0	5624	462350.3406642471	1859.1771556064
0	5633	463213.236881978859	2097.2200994845
0	5640	463781.05285456409	1830.035482021
0	5647	464228.285091882621	1877.9444276355
0	5656	465261.073578055997	2047.8366960771
0	5665	466116.959459055264	2043.1939861737
0	5678	467182.654041471009	2349.1474603303
0	5683	467622.793418169071	2047.59343802
0	5696	468869.062006473591	2403.732173983
0	5703	469638.830496138012	2456.176454667
0	5710	470139.164866413971	2135.8978997916
0	5719	470593.129916070079	1724.0679095965
0	5732	471906.167489429986	2183.3905324806
0	5741	472627.429017797163	2160.9362178482
0	5750	473254.839449934712	2046.5579668991
0	5755	473658.987635280988	1752.820145851
0	5764	474511.875052750162	1884.446034953
0	5773	475334.88986757589	2080.0504176412
0	5782	475792.090306850201	1703.9829391055
0	5793	477011.311420239559	2108.0030570738
0	5800	477431.533311260915	1666.6819926817
0	5813	478614.900214271671	2114.2148417886
0	5820	479354.715455230377	2200.6864688359
0	5827	479781.317426310904	1845.751316892
0	5836	480315.363102313183	1700.4628880415
0	5849	481253.409654786861	1773.9551656879
0	5858	481909.562237095139	1974.2266172078
0	5863	482424.616379337437	1669.3811228033
0	5874	483502.253057761169	2248.8434029743
0	5885	484212.014796445197	2302.4525593501
0	5892	484892.412749910778	2148.8206253853
0	5901	485823.451760178483	2286.3270621747
0	5912	486546.212264243564	2334.1974677984
0	5919	487329.554149741358	2331.5747620538
0	5926	487881.921588303572	1990.5210554134
0	5939	489074.407314229808	2528.1950499862
0	5948	489966.737826168589	2550.8174580988
0	5957	490861.535728443466	2559.2498597223
0	5964	491596.081401687168	2521.6740874574
0	5973	492199.94583707308	2233.2080109045
0	5984	493240.188466664456	2378.652738221
0	5991	493879.787968006037	2210.1875178516
0	6002	494700.682604871742	2294.8850508314
0	6009	495107.495060702838	1867.3065940384
0	6018	495733.755673840694	1797.5640334189
0	6025	496123.816386563755	1423.133781692
0	6036	497088.539198739507	1958.7153750937
0	6045	497752.548034954869	1751.1214113794
0	6056	499010.800207033806	2550.3822932951
0	6063	499581.157003389724	2264.8763459176
0	6070	499884.71244927501	1717.2631650232
0	6081	500549.368117796309	1538.5679107625
0	6092	501925.445870356686	2229.7257932369
0	6097	502256.44147815188	2095.666955458
0	6110	503327.681767847441	2295.872189803
0	6115	503833.979035774298	1908.5331654176
0	6128	504932.624529535003	2248.5164971557
0	6135	505738.55836261069	2410.8765947632
0	6142	506158.284240542032	2118.8048487995
0	6153	507032.034761644953	2099.4102321099
0	6162	507851.000072434598	2032.9570108093
0	6169	508264.75491584284	1590.5323766638
0	6178	509000.14973538933	1681.376860477
0	6187	509699.587559234404	1527.2217631806
0	6196	510664.939983096028	1777.2139679175
0	6207	511482.367226108963	2036.2811364234
0	6214	511932.402626518214	1825.5146885756
0	6227	512908.487293822746	2036.62455054
0	6234	513522.184752579834	1818.763865903
0	6243	514092.747760796975	1668.1397408713
0	6250	514782.193818921279	1873.7065250985
0	6259	515627.020938461701	2039.2579644453
0	6272	516823.227417748477	2474.2113947868
0	6281	517622.161467885654	2424.9151564669
0	6286	518216.85654460458	2164.6712017246
0	6295	518895.577716361787	2072.3502986133
0	6306	519925.187755795252	2303.0262879096
0	6315	520679.946327488926	2277.0979654044
0	6326	521452.856989670601	2150.1820780803
0	6331	521761.872141435799	1784.4704682939
0	6342	522482.391658611652	1656.8180127069
0	6353	523586.153320502546	2133.2963308319
0	6362	524210.06797039887	2308.7558452506
0	6369	524802.309083752391	2022.5017983466
0	6376	525252.245047967938	1666.0917274654
0	6385	526252.419825783056	2042.3518553842
0	6394	526965.591078065392	1863.2831107825
0	6405	527677.181006083321	1763.2686928846
0	6412	528052.739646798056	1514.0853897203
0	6425	529368.845970975291	2278.6911884788
0	6430	529884.835439035725	1951.7747574951
0	6443	531017.815649416354	2233.1720550545
0	6450	531605.178332794514	2236.3323618192
0	6457	532066.843676939663	1891.4616620634
0	6468	532825.485708704275	1807.6700592879
0	6477	533752.970311604497	2126.1083814315
0	6486	534796.147204935608	2364.5392709412
0	6497	535489.928347896842	2417.7076716442
0	6502	535922.138549108116	2014.1248071101
0	6515	537009.222390549315	2210.9320855234
0	6522	537494.979926850704	2005.0515789539
0	6529	538220.208239788247	1889.1372133512
0	6540	539091.843174398003	2082.6207838487
0	6547	539680.046930490119	1863.0036489107
0	6556	540320.178536418883	1688.474233076
0	6569	541535.689429007528	2119.8889380321
0	6576	542155.908575467823	2044.3488861434
0	6583	542800.537667982338	2122.8678954765
0	6594	543286.909936554787	1751.2205075473
0	6601	544092.976280814094	1831.4638875425
0	6610	544727.320669451785	1794.6582006756
0	6619	545535.614312393647	1749.5342415757
0	6630	546372.231515217629	2020.8676008973
0	6641	547227.02425383037	2026.2806747574
0	6646	547783.004724746626	2017.5988053437
0	6659	548636.133483890501	2110.868557496
0	6664	548985.914903087598	1758.8906492572
0	6673	549590.627371380163	1760.4023935273
0	6686	550635.606925422383	1999.4734415319
0	6695	551397.330137528536	2127.7067644056
0	6702	551957.013446185795	1953.3115503844
0	6709	552267.36456477089	1631.7576393485
0	6722	553403.089062776473	2005.7589252479
0	6729	554079.318868462053	1968.7921101227
0	6740	554655.304887006116	1900.8172513917
0	6749	555308.242170419601	1905.1531076431
0	6754	555629.55077695666	1476.4735742938
0	6763	556227.610503556264	1572.3056165501
0	6768	556980.113726807815	1671.8715563882
0	6781	558023.785078665299	1912.7493266948
0	6794	559235.792629933042	2235.8791391831
0	6801	559980.352238193212	2251.9924116321
0	6810	560493.282939679978	2127.5937352795
0	6821	561503.50410765974	2267.7114777267
0	6826	561849.094433477206	1824.2454866879
0	6835	562504.094692971615	1727.0171147771
0	6848	563752.102010697183	2248.5979030374
0	6857	564471.945695858505	2259.3837546185
0	6864	564951.822114083972	2090.290082898
0	6871	565305.019129486811	1552.9171187896
0	6884	566186.803683545497	1714.857987687
0	6891	566953.920540260208	1983.1428023055
0	6902	567731.659759115484	2099.6208602563
0	6907	568592.685302579832	2405.8816190343
0	6916	569275.264827255216	2300.5864793435
0	6929	570006.472333381009	2274.8125742655
0	6934	570392.129568988514	1760.9094102401
0	6947	571594.481027964559	2184.8725401331
0	6956	572312.998956581634	2306.5266232006
0	6963	572841.502451710459	2040.9621375147
0	6974	573598.108675936293	2003.6276479717
0	6983	574357.849849714022	2044.8508931324
0	6988	574785.174656705987	1883.4349093493
0	7001	575777.759548975211	2179.6508730389
0	7010	576625.130787352156	2267.2809376381
0	7015	577209.128408599701	2067.5424610265
0	7028	577787.487826589551	2009.7282776143
0	7037	578564.728982839789	1939.5981954876
0	7044	579145.393604692127	1834.9389138166
0	7055	580191.966026974898	2404.4782003853
0	7062	580545.832825452145	1981.1038426124
0	7069	581022.692144243102	1645.4567037988
0	7080	581957.458514347729	1765.4924873728
0	7087	582696.054572146443	1805.828420911
0	7096	583490.498509258088	2003.7411495578
0	7109	584633.747068466675	2261.0085562337
0	7118	585243.210979923662	2110.5735044461
0	7125	585954.737801291105	2100.1929825637
0	7134	586623.845240101275	1990.0981716346
0	7143	587449.4640093763	2206.2530294526
0	7150	587977.612143103091	1946.0929450113
0	7161	588807.088364800496	2006.762811821
0	7168	589297.326998552365	1789.7700356785
0	7177	590165.311666857509	1829.224214796
0	7188	591318.320921156613	2285.3183438536
0	7199	591988.555887714086	2216.3529822137
0	7204	592498.414256516902	1865.6073683873
0	7213	593235.486033512337	1826.0193450842
0	7222	593761.416943324788	1772.8610556107
0	7235	594834.020368661789	2014.1540926415
0	7242	595659.471971076039	2243.3790806215
0	7253	596529.4116962236	2527.6117381174
0	7260	597240.735618816747	2406.715250155
0	7267	597683.104277495353	1975.5841005128
0	7280	598631.646069092734	2102.2343728691
0	7287	599288.6056322605	1991.6157529224
0	7298	600060.058857919706	2285.3284060489
0	7305	600494.896587682946	1863.2505185902
0	7312	601167.869438370748	1858.7675414979
0	7325	601888.130474556296	1828.0716166366
0	7330	602459.842564025952	1592.5098402891
0	7339	602985.92896205379	1578.9791519288
0	7350	603943.445696868062	2055.3152223118
1	3145	260233.753929426919	348
1	3154	260967.837918782632	349
1	3165	262303.083578869726	350
1	3172	262709.647224470999	351
1	3185	263767.977217678007	352
1	3194	264413.188253017169	353
1	3203	265256.067014671889	354
1	3210	265950.083182286498	355
1	3217	266491.617186740068	356
1	3226	266866.553131258142	357
1	3237	267604.985031718415	358
1	3248	268641.93663136105	359
1	3253	269273.048329632757	360
1	3262	269858.596044452889	361
1	3275	271140.999752841918	362
1	3284	271750.16227760355	363
1	3291	272245.742151606856	364
1	3302	272944.437363417847	365
1	3307	273480.283020716188	366
1	3320	274347.047821618645	367
1	3325	275098.449433688103	368
1	3334	275590.010363375797	369
1	3345	276485.06483430977	370
1	3356	277437.781690713046	371
1	3363	278085.382311372114	372
1	3374	279137.591025000466	373
1	3379	279563.387719681514	374
1	3390	280729.713910818128	375
1	3397	281438.872672850294	376
1	3406	282044.398510688944	377
1	3417	283027.792140701814	378
1	3424	283909.909979486866	379
1	3435	284405.019917478814	380
1	3442	285077.157486649259	381
1	3453	285735.854603955551	382
1	3460	286256.702275062009	383
1	3469	287032.225086679711	384
1	3478	287716.922284383356	385
1	3491	289258.200949290796	386
1	3498	289939.773811446532	387
1	3507	290719.626747351169	388
1	3516	291190.376454452082	389
1	3527	291917.87495445463	390
1	3536	292793.643080955401	391
1	3543	293468.328146031156	392
1	3550	293858.359317155585	393
1	3559	294587.090729316727	394
1	3572	295392.052459577129	395
1	3581	296190.053764963553	396
1	3586	296761.844050604881	397
1	3595	297330.702915228934	398
1	3604	298338.15541737716	399
1	3615	299086.53804003264	400
1	3622	299459.478012286157	401
1	3633	300460.24282691072	402
1	3640	300984.769664565132	403
1	3651	301978.196930279985	404
1	3658	302527.272288640991	405
1	3669	303572.605853481249	406
1	3678	304102.739200880782	407
1	3687	305083.175804279776	408
1	3694	305756.768383830817	409
1	3703	306715.993866417588	410
1	3714	307638.426071684839	411
1	3725	308418.829086329819	412
1	3734	309236.249759607048	413
1	3743	310068.99001649584	414
1	3748	310533.16862625073	415
1	3757	311402.775662345843	416
1	3766	312421.553250867904	417
1	3775	312794.652120117129	418
1	3786	314428.936875751274	419
1	3795	315055.360936559768	420
1	3804	315785.598740587042	421
1	3813	316527.550479909436	422
1	3822	317346.825994178684	423
1	3831	317996.083209151434	424
1	3838	318383.602331439065	425
1	3847	318911.595542449536	426
1	3860	320419.964655814724	427
1	3869	321011.1162987538	428
1	3878	321618.56454103257	429
1	3887	322470.18784331161	430
1	3896	323272.495817486229	431
1	3901	323729.944664379614	432
1	3912	324568.045842088791	433
1	3919	325207.87259959619	434
1	3930	326042.847915831985	435
1	3937	326527.562832646104	436
1	3948	327686.543698282946	437
1	3955	328140.77863376591	438
1	3968	328947.433042014051	439
1	3975	329304.292935552109	440
1	3986	330055.326974345405	441
1	3991	330356.172381760586	442
1	4002	330784.4370407984	443
1	4009	331337.921331357245	444
1	4020	332197.66280818734	445
1	4029	333024.911917420138	446
1	4040	333737.97669927593	447
1	4049	334377.751036081497	448
1	4056	334916.363176144693	449
1	4063	335312.004105560515	450
1	4074	336331.385605037247	451
1	4083	337277.070531388779	452
1	4090	337868.004175275599	453
1	4103	338567.079031281208	454
1	4110	339339.377184491639	455
1	4117	339642.010778049042	456
1	4128	340840.32497517768	457
1	4135	341459.193626884405	458
1	4144	342201.749305939336	459
1	4157	343151.245000585949	460
1	4164	343851.202615862748	461
1	4173	344716.951202787495	462
1	4180	345318.048365134782	463
1	4189	346005.27475783605	464
1	4198	346580.348939867726	465
1	4211	347410.839689802414	466
1	4218	347979.609313560685	467
1	4227	348782.881717337331	468
1	4234	349478.940768633073	469
1	4243	350062.924059201068	470
1	4252	350915.2989580762	471
1	4261	351679.983896669036	472
1	4272	352241.058907052538	473
1	4281	352921.318106213621	474
1	4288	353508.056621672622	475
1	4301	354563.27951098796	476
1	4310	355414.13649972532	477
1	4315	355888.827505521514	478
1	4324	356748.571596248114	479
1	4335	357564.097875449844	480
1	4342	357949.533407064192	481
1	4351	358663.967582210936	482
1	4360	359260.41721771475	483
1	4373	360341.877669934221	484
1	4378	360646.622525341846	485
1	4387	361470.442501595282	486
1	4400	362543.402877822556	487
1	4405	363038.214048603587	488
1	4414	363757.814921485298	489
1	4427	364491.781327128448	490
1	4434	365184.846620494538	491
1	4445	365949.558760877737	492
1	4454	366801.003888482266	493
1	4461	367351.273239729964	494
1	4468	367884.028245555275	495
1	4477	368457.841747999229	496
1	4488	369718.734232010358	497
1	4499	370219.438280258366	498
1	4504	370519.772905670145	499
1	4513	371436.42648635436	500
1	4526	372440.33744400371	501
1	4531	372745.100226625839	502
1	4544	373700.088838068807	503
1	4549	374251.894886512348	504
1	4558	374931.992520159149	505
1	4567	375586.734038963952	506
1	4580	376857.704863976726	507
1	4587	377500.690262485334	508
1	4598	378325.659936061168	509
1	4605	378721.685247262979	510
1	4612	379081.946583604479	511
1	4621	380145.313972234765	512
1	4630	380857.764362264464	513
1	4639	381491.185220517258	514
1	4652	382696.868970058898	515
1	4657	383143.203753512392	516
1	4668	383982.048154855186	517
1	4675	384290.605183504561	518
1	4686	385095.835508080239	519
1	4693	385874.676411598961	520
1	4704	386755.219277925828	521
1	4711	387404.596148058811	522
1	4720	388243.957057781556	523
1	4733	389325.239560799712	524
1	4740	389798.058987082952	525
1	4751	390754.744951101059	526
1	4760	391650.819605123291	527
1	4769	392356.722427345852	528
1	4776	392798.958982201333	529
1	4785	393611.933272937353	530
1	4794	394288.535482808988	531
1	4805	395082.026189798529	532
1	4810	395621.443918347399	533
1	4823	396592.658429173793	534
1	4832	397427.086346503388	535
1	4839	398189.739634702023	536
1	4848	399054.039214085828	537
1	4855	399362.999764177989	538
1	4868	400618.667889246759	539
1	4873	401128.122926875991	540
1	4884	401869.692501146388	541
1	4891	402493.769766809461	542
1	4900	402948.018658021507	543
1	4911	404158.769183792216	544
1	4922	405050.380672607613	545
1	4931	405791.605892730919	546
1	4936	406216.842517303345	547
1	4945	406878.879691287917	548
1	4950	407479.573924094482	549
1	4965	408761.349025368733	550
1	4974	409820.070782443551	551
1	4981	410391.000132774976	552
1	4992	411057.763328729239	553
1	5001	411907.872107718182	554
1	5008	412485.278845159379	555
1	5019	413205.168768251356	556
1	5026	414177.57038944405	557
1	5035	414499.951609829483	558
1	5044	415458.078945754138	559
1	5055	416480.241632647854	560
1	5062	417047.905263584149	561
1	5075	418115.074136992958	562
1	5084	418998.873082269025	563
1	5091	419460.505981603679	564
1	5100	420161.792256776285	565
1	5107	420714.367714617443	566
1	5116	421415.815747249913	567
1	5129	422231.389151746449	568
1	5138	423064.109525084537	569
1	5145	423455.996910575819	570
1	5156	424204.508016491351	571
1	5161	424525.632345629898	572
1	5172	425809.348044404802	573
1	5183	426690.458731306759	574
1	5188	427361.832301039291	575
1	5201	428099.848408252043	576
1	5208	428745.652230642778	577
1	5215	429419.397479016376	578
1	5226	430136.733288830188	579
1	5237	431131.201354041738	580
1	5242	431501.975792460186	581
1	5253	432358.756634965581	582
1	5264	433252.425921382425	583
1	5271	434043.008455401329	584
1	5280	434867.892697965769	585
1	5287	435260.92154933144	586
1	5296	435922.189132310494	587
1	5307	436866.388513846366	588
1	5314	437364.983911626084	589
1	5323	438202.503400063186	590
1	5334	438845.317478477999	591
1	5341	440028.271328005984	592
1	5352	440561.119483737319	593
1	5359	440907.679971959486	594
1	5372	442171.770077571317	595
1	5381	442728.832130692943	596
1	5386	443082.760446611836	597
1	5395	443687.671715905934	598
1	5406	444430.362309515521	599
1	5417	445333.582116896331	600
1	5424	445921.228468744129	601
1	5435	446634.656195109755	602
1	5444	447472.342576598794	603
1	5453	448306.010696897329	604
1	5458	448995.314804697455	605
1	5471	449927.292370889382	606
1	5478	450412.542602978693	607
1	5487	450959.837616607593	608
1	5496	451724.835429713176	609
1	5503	452336.905418336438	610
1	5512	453175.549904862465	611
1	5521	453780.070645222487	612
1	5530	454780.828710598918	613
1	5541	455960.364714637446	614
1	5548	456273.682227172005	615
1	5557	457008.306510932792	616
1	5568	457906.614264054272	617
1	5575	458514.997355081189	618
1	5588	459693.98595727985	619
1	5593	460158.458431530792	620
1	5602	460721.859702095438	621
1	5611	461555.256308522124	622
1	5624	462350.3406642471	623
1	5633	463213.236881978859	624
1	5640	463781.05285456409	625
1	5647	464228.285091882621	626
1	5656	465261.073578055997	627
1	5665	466116.959459055264	628
1	5678	467182.654041471009	629
1	5683	467622.793418169071	630
1	5696	468869.062006473591	631
1	5703	469638.830496138012	632
1	5710	470139.164866413971	633
1	5719	470593.129916070079	634
1	5732	471906.167489429986	635
1	5741	472627.429017797163	636
1	5750	473254.839449934712	637
1	5755	473658.987635280988	638
1	5764	474511.875052750162	639
1	5773	475334.88986757589	640
1	5782	475792.090306850201	641
1	5793	477011.311420239559	642
1	5800	477431.533311260915	643
1	5813	478614.900214271671	644
1	5820	479354.715455230377	645
1	5827	479781.317426310904	646
1	5836	480315.363102313183	647
1	5849	481253.409654786861	648
1	5858	481909.562237095139	649
1	5863	482424.616379337437	650
1	5874	483502.253057761169	651
1	5885	484212.014796445197	652
1	5892	484892.412749910778	653
1	5901	485823.451760178483	654
1	5912	486546.212264243564	655
1	5919	487329.554149741358	656
1	5926	487881.921588303572	657
1	5939	489074.407314229808	658
1	5948	489966.737826168589	659
1	5957	490861.535728443466	660
1	5964	491596.081401687168	661
1	5973	492199.94583707308	662
1	5984	493240.188466664456	663
1	5991	493879.787968006037	664
1	6002	494700.682604871742	665
1	6009	495107.495060702838	666
1	6018	495733.755673840694	667
1	6025	496123.816386563755	668
1	6036	497088.539198739507	669
1	6045	497752.548034954869	670
1	6056	499010.800207033806	671
1	6063	499581.157003389724	672
1	6070	499884.71244927501	673
1	6081	500549.368117796309	674
1	6092	501925.445870356686	675
1	6097	502256.44147815188	676
1	6110	503327.681767847441	677
1	6115	503833.979035774298	678
1	6128	504932.624529535003	679
1	6135	505738.55836261069	680
1	6142	506158.284240542032	681
1	6153	507032.034761644953	682
1	6162	507851.000072434598	683
1	6169	508264.75491584284	684
1	6178	509000.14973538933	685
1	6187	509699.587559234404	686
1	6196	510664.939983096028	687
1	6207	511482.367226108963	688
1	6214	511932.402626518214	689
1	6227	512908.487293822746	690
1	6234	513522.184752579834	691
1	6243	514092.747760796975	692
1	6250	514782.193818921279	693
1	6259	515627.020938461701	694
1	6272	516823.227417748477	695
1	6281	517622.161467885654	696
1	6286	518216.85654460458	697
1	6295	518895.577716361787	698
1	6306	519925.187755795252	699
1	6315	520679.946327488926	700
1	6326	521452.856989670601	701
1	6331	521761.872141435799	702
1	6342	522482.391658611652	703
1	6353	523586.153320502546	704
1	6362	524210.06797039887	705
1	6369	524802.309083752391	706
1	6376	525252.245047967938	707
1	6385	526252.419825783056	708
1	6394	526965.591078065392	709
1	6405	527677.181006083321	710
1	6412	528052.739646798056	711
1	6425	529368.845970975291	712
1	6430	529884.835439035725	713
1	6443	531017.815649416354	714
1	6450	531605.178332794514	715
1	6457	532066.843676939663	716
1	6468	532825.485708704275	717
1	6477	533752.970311604497	718
1	6486	534796.147204935608	719
1	6497	535489.928347896842	720
1	6502	535922.138549108116	721
1	6515	537009.222390549315	722
1	6522	537494.979926850704	723
1	6529	538220.208239788247	724
1	6540	539091.843174398003	725
1	6547	539680.046930490119	726
1	6556	540320.178536418883	727
1	6569	541535.689429007528	728
1	6576	542155.908575467823	729
1	6583	542800.537667982338	730
1	6594	543286.909936554787	731
1	6601	544092.976280814094	732
1	6610	544727.320669451785	733
1	6619	545535.614312393647	734
1	6630	546372.231515217629	735
1	6641	547227.02425383037	736
1	6646	547783.004724746626	737
1	6659	548636.133483890501	738
1	6664	548985.914903087598	739
1	6673	549590.627371380163	740
1	6686	550635.606925422383	741
1	6695	551397.330137528536	742
1	6702	551957.013446185795	743
1	6709	552267.36456477089	744
1	6722	553403.089062776473	745
1	6729	554079.318868462053	746
1	6740	554655.304887006116	747
1	6749	555308.242170419601	748
1	6754	555629.55077695666	749
1	6763	556227.610503556264	750
1	6768	556980.113726807815	751
1	6781	558023.785078665299	752
1	6794	559235.792629933042	753
1	6801	559980.352238193212	754
1	6810	560493.282939679978	755
1	6821	561503.50410765974	756
1	6826	561849.094433477206	757
1	6835	562504.094692971615	758
1	6848	563752.102010697183	759
1	6857	564471.945695858505	760
1	6864	564951.822114083972	761
1	6871	565305.019129486811	762
1	6884	566186.803683545497	763
1	6891	566953.920540260208	764
1	6902	567731.659759115484	765
1	6907	568592.685302579832	766
1	6916	569275.264827255216	767
1	6929	570006.472333381009	768
1	6934	570392.129568988514	769
1	6947	571594.481027964559	770
1	6956	572312.998956581634	771
1	6963	572841.502451710459	772
1	6974	573598.108675936293	773
1	6983	574357.849849714022	774
1	6988	574785.174656705987	775
1	7001	575777.759548975211	776
1	7010	576625.130787352156	777
1	7015	577209.128408599701	778
1	7028	577787.487826589551	779
1	7037	578564.728982839789	780
1	7044	579145.393604692127	781
1	7055	580191.966026974898	782
1	7062	580545.832825452145	783
1	7069	581022.692144243102	784
1	7080	581957.458514347729	785
1	7087	582696.054572146443	786
1	7096	583490.498509258088	787
1	7109	584633.747068466675	788
1	7118	585243.210979923662	789
1	7125	585954.737801291105	790
1	7134	586623.845240101275	791
1	7143	587449.4640093763	792
1	7150	587977.612143103091	793
1	7161	588807.088364800496	794
1	7168	589297.326998552365	795
1	7177	590165.311666857509	796
1	7188	591318.320921156613	797
1	7199	591988.555887714086	798
1	7204	592498.414256516902	799
1	7213	593235.486033512337	800
1	7222	593761.416943324788	801
1	7235	594834.020368661789	802
1	7242	595659.471971076039	803
1	7253	596529.4116962236	804
1	7260	597240.735618816747	805
1	7267	597683.104277495353	806
1	7280	598631.646069092734	807
1	7287	599288.6056322605	808
1	7298	600060.058857919706	809
1	7305	600494.896587682946	810
1	7312	601167.869438370748	811
1	7325	601888.130474556296	812
1	7330	602459.842564025952	813
1	7339	602985.92896205379	814
1	7350	603943.445696868062	815

