version 2
run Pipeline_7teachers-13-20181220-18:43:16-15324
attr configname Pipeline_7teachers
attr datetime 20181220-18:43:16
attr experiment Pipeline_7teachers
attr inifile omnetpp.ini
attr iterationvars "$0=\"lognormal\""
attr iterationvarsf lognormal-
attr measurement "$0=\"lognormal\""
attr network PipelinedExamSession
attr processid 15324
attr repetition 3
attr replication #3
attr resultdir results
attr runnumber 13
attr seedset 3
param **.teachersNumber 7
param **.answerTimeDistribution "\"lognormal\""
param **.minUniform 300
param **.maxUniform 1800
param **.scaleLognormal 6.8153
param **.shapeLognormal 0.5316

vector 0 PipelinedExamSession examinationTime:vector ETV
attr source examFinished
vector 1 PipelinedExamSession studentsWaitingTime:vector ETV
attr source waitingTime
vector 2 PipelinedExamSession teachersIdleTime:vector ETV
attr source idleTime
0	57	7673.788511578866	7673.7885115789
0	110	10794.956510555304	9121.700470269
0	137	13861.539840130128	10763.021787358
0	160	14864.373545993632	8960.7402868093
0	193	16776.827012943379	9885.5632373524
0	202	17174.568243567673	8609.0075922648
0	223	18395.5939491086	9045.7523980451
0	246	19662.737418404721	9088.665375655
0	291	22927.26024709	9811.9146281655
0	314	23715.091476015243	9099.1651877121
0	327	24817.68847137013	8718.1766466544
0	362	26515.420814690668	9127.6863090338
0	365	26989.681261731811	8347.5228759174
0	382	28379.809843439076	8402.5177587245
0	427	31606.532419590698	9747.7127709236
0	442	32509.672516674978	9143.5166353823
0	497	36730.325086115339	11655.930059331
0	514	37632.37872791014	11232.731867562
0	541	39202.608156055603	10560.030002008
0	560	39868.74618231927	9775.8409648617
0	579	40946.022528897109	8947.1169024973
0	586	41604.632002771127	7632.1277966173
0	621	44084.237325627748	8882.80315585
0	632	44647.248300816731	7916.9232147014
0	657	46485.803685190983	7824.5533092615
0	716	49540.257413960712	9232.3840870511
0	735	50597.630021743966	7594.8870642371
0	752	52234.814301701169	8273.6341587148
0	791	54383.335891233647	9222.0282698325
0	804	54874.988366714379	8242.7055905983
0	825	56098.460260139064	8395.5842103336
0	834	56794.834604810857	8116.1698520793
0	855	59097.519600896344	8645.8882574264
0	916	64545.648307386794	12262.977800654
0	937	65784.224547031019	12180.571529092
0	960	66937.558040697264	10992.837410239
0	987	69900.528444931197	12971.406779834
0	1014	72104.776072783055	12005.128802146
0	1045	74995.04637201329	13114.854533312
0	1068	76055.739457272999	11680.815576846
0	1093	77193.480798033014	11814.228247596
0	1118	78365.948738299067	11939.353108255
0	1137	79255.973009578818	9946.9111596968
0	1168	81343.208427008167	10186.490337846
0	1191	82309.538050772798	8187.3369467178
0	1218	83613.754069231105	8307.1790234781
0	1241	84407.398280318221	7759.3624430127
0	1258	85410.368251222826	8009.8598649651
0	1279	87112.528057123198	8127.0154119572
0	1292	88776.502610591609	8145.2177640171
0	1347	95325.003040034247	13783.315199913
0	1370	96705.205288293163	13657.749508752
0	1383	97332.375098607289	13706.989414511
0	1410	99087.580009467408	12717.780582029
0	1421	99565.099647952225	11581.517535947
0	1442	100709.182226479002	7771.4787780331
0	1481	104155.261210996815	9782.4139893234
0	1494	104731.944856859634	9406.9418168254
0	1539	107598.488337110239	10064.970601974
0	1554	108167.891552661466	8953.0622010481
0	1561	108717.199980171251	8845.2406272532
0	1572	110077.700606127795	8442.039340083
0	1605	112618.773149044807	8292.9455602987
0	1624	114430.333704712925	9162.5693707235
0	1677	118612.324754365303	11564.465638512
0	1706	120088.446292842886	9624.9569123464
0	1731	121817.371572684351	10002.761330695
0	1750	122607.900271190716	8722.1124540343
0	1757	123131.036158951066	7829.076235086
0	1782	124548.808595696001	6821.9675276139
0	1801	125944.121076579014	7206.5496906643
0	1852	129171.819936511171	7990.3899611455
0	1875	130588.845538917143	8739.6580308798
0	1882	131503.664189075454	7280.5571985226
0	1941	135842.202551636482	10580.125444042
0	1964	136552.989246452238	9619.2942043883
0	1973	138475.553496567728	10525.140178088
0	2010	140952.640476276111	11528.506181756
0	2041	143084.958066619424	11466.567493909
0	2050	144087.465536229743	9960.7435725995
0	2065	144728.994729518401	9165.2786671458
0	2100	146691.233412638116	10548.042400287
0	2115	147729.190261112616	8737.7069577212
0	2168	151366.330736217113	10907.405605819
0	2185	151784.161894804929	9519.4187044753
0	2212	153371.745644016631	8842.7174936887
0	2223	154382.576111718096	8311.0469572016
0	2268	157178.212826882539	9779.7102825881
0	2285	157543.267088612843	9185.4677560847
0	2306	158834.515590659601	8682.0624735763
0	2315	159224.511437569238	7698.7954606967
0	2352	162680.851705426514	9751.7684835757
0	2361	164283.399027828662	9551.5559982803
0	2400	166853.700214800289	10406.847286318
0	2415	167841.198249201664	10312.84012786
0	2440	170202.979089963633	11214.815966973
1	57	7673.788511578866	0
1	110	10794.956510555304	0
1	137	13861.539840130128	4293.3587371544
1	160	14864.373545993632	1562.2063236114
1	193	16776.827012943379	2435.8453855147
1	202	17174.568243567673	1734.8890950737
1	223	18395.5939491086	3393.2700789274
1	246	19662.737418404721	2737.9955751789
1	291	22927.26024709	2204.4173845683
1	314	23715.091476015243	3851.4565364584
1	327	24817.68847137013	2376.1910065437
1	362	26515.420814690668	3534.0472593386
1	365	26989.681261731811	1708.8138195992
1	382	28379.809843439076	1830.9397245586
1	427	31606.532419590698	283.99653953698
1	442	32509.672516674978	2105.9494946551
1	497	36730.325086115339	1741.1080510491
1	514	37632.37872791014	4152.1470069455
1	541	39202.608156055603	3317.9164540629
1	560	39868.74618231927	4436.5715577432
1	579	40946.022528897109	1503.4410749356
1	586	41604.632002771127	2561.6654962417
1	621	44084.237325627748	825.9371650843
1	632	44647.248300816731	2816.7995823109
1	657	46485.803685190983	0
1	716	49540.257413960712	0
1	735	50597.630021743966	688.31932226333
1	752	52234.814301701169	1849.9312704234
1	791	54383.335891233647	2968.686561512
1	804	54874.988366714379	3225.0870864576
1	825	56098.460260139064	2054.2873797481
1	834	56794.834604810857	2684.6668484073
1	855	59097.519600896344	1263.6137374341
1	916	64545.648307386794	0
1	937	65784.224547031019	6109.3122501479
1	960	66937.558040697264	3686.9636057181
1	987	69900.528444931197	5996.4717262719
1	1014	72104.776072783055	2446.3703522061
1	1045	74995.04637201329	3288.7342048614
1	1068	76055.739457272999	4358.9299096148
1	1093	77193.480798033014	4313.0765005129
1	1118	78365.948738299067	2882.7381100637
1	1137	79255.973009578818	2265.2083964291
1	1168	81343.208427008167	4311.8635556552
1	1191	82309.538050772798	2612.6035510638
1	1218	83613.754069231105	2430.5803090006
1	1241	84407.398280318221	1076.2030137729
1	1258	85410.368251222826	2055.3013008179
1	1279	87112.528057123198	2413.8148450803
1	1292	88776.502610591609	1656.1703472779
1	1347	95325.003040034247	2811.3512811853
1	1370	96705.205288293163	4937.1662565682
1	1383	97332.375098607289	6356.3397521776
1	1410	99087.580009467408	5079.0139425699
1	1421	99565.099647952225	5051.8304135086
1	1442	100709.182226479002	1803.76077314
1	1481	104155.261210996815	1149.5703501143
1	1494	104731.944856859634	1731.5637199154
1	1539	107598.488337110239	1809.8538420929
1	1554	108167.891552661466	454.48358142576
1	1561	108717.199980171251	3108.6231715321
1	1572	110077.700606127795	2727.6320820687
1	1605	112618.773149044807	1010.8981232761
1	1624	114430.333704712925	574.20735975809
1	1677	118612.324754365303	3853.3712511497
1	1706	120088.446292842886	1764.0383390866
1	1731	121817.371572684351	4403.1081947733
1	1750	122607.900271190716	1447.2811197357
1	1757	123131.036158951066	361.9364046048
1	1782	124548.808595696001	839.28401800132
1	1801	125944.121076579014	0
1	1852	129171.819936511171	4.196358922955
1	1875	130588.845538917143	2223.5831736209
1	1882	131503.664189075454	1417.0522473881
1	1941	135842.202551636482	763.16359225375
1	1964	136552.989246452238	1329.5343623484
1	1973	138475.553496567728	4570.8471827128
1	2010	140952.640476276111	1964.4821192052
1	2041	143084.958066619424	2675.4145476055
1	2050	144087.465536229743	4633.2707685864
1	2065	144728.994729518401	3636.3026430404
1	2100	146691.233412638116	1645.3307611055
1	2115	147729.190261112616	3397.452514191
1	2168	151366.330736217113	1745.3985578146
1	2185	151784.161894804929	3819.7516900785
1	2212	153371.745644016631	3523.0673049263
1	2223	154382.576111718096	2412.5196833102
1	2268	157178.212826882539	2081.8195940519
1	2285	157543.267088612843	2719.9211624619
1	2306	158834.515590659601	1953.5891427918
1	2315	159224.511437569238	1950.1553286679
1	2352	162680.851705426514	2858.6403011354
1	2361	164283.399027828662	3026.2190569441
1	2400	166853.700214800289	1856.1126877464
1	2415	167841.198249201664	1797.2834007943
1	2440	170202.979089963633	4123.7671797724
2	2461	172800	72811.630217417
2	2461	172800	75674.570266356
2	2461	172800	64382.498376771
2	2461	172800	70569.404604785
2	2461	172800	69229.386577028
2	2461	172800	82386.739509303
2	2461	172800	66789.09669575

