version 2
run Pipelined_3Teachers-22-20190105-10:57:22-19460
attr configname Pipelined_3Teachers
attr datetime 20190105-10:57:22
attr experiment Pipelined_3Teachers
attr inifile ../simulations/omnetpp.ini
attr iterationvars "$0=\"uniform\""
attr iterationvarsf uniform-
attr measurement "$0=\"uniform\""
attr network PipelinedExamSession
attr processid 19460
attr repetition 22
attr replication #22
attr resultdir results
attr runnumber 22
attr seedset 22
param **.teachersNumber 3
param **.answerTimeDistribution "\"uniform\""
param **.minUniform 300
param **.maxUniform 900
param **.scaleLognormal 6.2854
param **.shapeLognormal 0.4724

vector 0 PipelinedExamSession examinationTime:vector ETV
attr source examFinished
vector 1 PipelinedExamSession studentID:vector ETV
attr source student
0	3149	260147.083612717707	2141.841612244
0	3154	260687.402807408963	2101.7881709151
0	3167	261636.76204914229	2347.5453499239
0	3174	262416.229017125461	2269.1454044078
0	3185	263094.336366327498	2170.6557580736
0	3192	263810.867786547188	2174.1057374049
0	3199	264341.782827582229	1902.3653233889
0	3208	264881.198970414717	1786.8626040872
0	3221	265899.825152847935	2073.6850691959
0	3228	266604.784451890756	2099.1099934559
0	3237	267454.640773404409	2230.2924065385
0	3244	267850.242037838344	1950.4168849904
0	3253	268790.381772117708	2066.6978334077
0	3262	269318.635776964967	1848.4280632809
0	3275	270248.318116553147	2180.1184935495
0	3280	270674.032725999151	1746.4481101837
0	3291	271554.642191017066	2090.1501344517
0	3302	272243.483876343836	1995.1657597907
0	3309	273026.976766996105	2177.9381216504
0	3316	273500.814308132996	1888.3119507227
0	3325	274136.186001962071	1892.7021256182
0	3336	274921.899906685595	1796.3715740014
0	3347	275647.873632470166	1924.1097496357
0	3356	276470.065973745679	2118.1581849698
0	3365	277247.228922368979	2316.1532582715
0	3374	277906.595035549274	2258.7214030791
0	3379	278370.675444742686	1900.609470997
0	3392	279600.181740615538	2352.9528182466
0	3401	280345.166627923048	2438.5715923738
0	3406	280660.98002465444	1857.1396005806
0	3415	281870.94179405833	2270.7600534428
0	3424	282331.606879178456	1986.4402512554
0	3433	282801.389650488294	1569.7891410906
0	3446	284426.407901057995	2411.4041123539
0	3451	284844.168359600029	2090.4088870157
0	3464	285554.277802258752	1957.0373847149
0	3469	285915.550878597446	1489.1429775395
0	3480	286873.423778358869	1812.7917753998
0	3489	287467.079422529809	1912.8016202711
0	3496	287800.750092929252	1431.5551850013
0	3509	288518.784817401342	1596.3391216937
0	3518	289379.339079419173	1908.5096304305
0	3525	289907.818569755204	1802.129620593
0	3534	290566.960101015888	2048.1752836145
0	3541	290957.182620931439	1577.8435415123
0	3550	291362.995474319927	1314.8854274768
0	3559	292669.498449610568	2025.7550486829
0	3572	293513.482483662687	2161.4748061169
0	3579	294113.944303337507	1873.6556373071
0	3588	294490.532149141677	1642.7690402605
0	3595	294855.284630460687	1341.802146798
0	3600	295180.47803230586	1045.1882637106
0	3613	296355.356623185822	1796.8760473654
0	3624	297633.637207886228	2236.1019036267
0	3631	298391.912759514549	2184.8841219675
0	3640	298878.19065791557	1921.8033052515
0	3649	299663.545071613067	1884.5323495567
0	3662	300437.23345077599	1929.7687556595
0	3667	300775.108122965345	1718.0741528515
0	3678	301948.05794837887	2120.7429870497
0	3689	302559.941966878274	2122.7085161023
0	3694	302932.506867405051	1757.6602497138
0	3703	303991.122984560231	1991.0792467184
0	3712	304552.524841111177	1992.5828742329
0	3721	305324.666616367199	1961.4571510814
0	3730	306218.062946945453	1991.8812590651
0	3741	306921.286106575304	2139.2910697963
0	3748	307258.964547095844	1624.1556862369
0	3757	307651.225761976116	1324.6078880969
0	3768	308425.65713147635	1466.6032897308
0	3777	308973.979523358889	1636.8020086549
0	3784	309362.406976148509	1444.8775270488
0	3793	310225.26885448026	1682.7811737545
0	3804	311108.707021828764	1941.5072110947
0	3811	311836.196803115331	1996.2748990394
0	3820	312588.146444549807	1916.7906803079
0	3829	313438.992215506755	2028.4840143286
0	3838	313845.282723521836	1623.9349295385
0	3851	314994.62151587943	1954.1184116621
0	3860	315789.104977436386	2158.0007591285
0	3867	316278.202702291332	1802.8141851537
0	3874	317002.667542733275	2008.0460268538
0	3885	317986.529433634155	2197.4244561978
0	3892	318347.699380014115	1660.3593475185
0	3905	319306.964590586744	2032.7987945639
0	3912	319853.265311568998	1759.9183946382
0	3919	320441.344499588035	1776.3270826545
0	3928	321498.052994767226	2191.0884041805
0	3937	322345.746213058032	2231.8943027873
0	3946	322841.020643105753	1894.232781278
0	3955	323969.413511641345	2285.3520683013
0	3964	324435.862082708649	1878.4193464089
0	3973	325083.290633931778	1723.3682717197
0	3986	326255.103402351982	2123.3606123831
0	3993	326807.18102627436	1778.026614245
0	4002	327667.819725489266	2133.9659250341
0	4009	328259.987107990332	2004.8837056383
0	4018	328662.685872009046	1728.217310831
0	4029	329563.773100823185	1759.3803049531
0	4036	330128.854912379778	1822.3894751631
0	4049	331230.162426084301	2201.168515021
0	4058	331787.476235814414	2032.6115095988
0	4067	332633.885650942124	1981.1973523814
0	4072	333341.309166373707	2111.1467402894
0	4085	333953.716524085052	2166.2402882706
0	4092	334432.070955634139	1798.185304692
0	4099	334759.198850858978	1234.8229694646
0	4110	336319.140156917296	2365.4236328322
0	4119	336966.039598826341	2296.7033687979
0	4128	337757.899377448507	2234.1644011438
0	4135	338340.603826940082	1919.1199754365
0	4146	339290.132074244343	2170.8997348789
0	4155	339985.228620283328	2216.0205409862
0	4166	341001.015388034307	2367.2721385024
0	4173	341658.473521890142	2269.3736482412
0	4180	342652.695589000382	2517.5048025325
0	4189	343007.941104099177	2006.9257160649
0	4200	344143.3564944193	2332.5173238292
0	4207	344547.433815803402	1878.2587960828
0	4218	345145.407509431266	1803.0707433354
0	4225	345488.877744041406	1279.7538103536
0	4236	346288.789710402512	1681.1069718562
0	4245	347221.809153584786	1773.4594497364
0	4256	347955.585165135585	2124.7474484146
0	4263	348502.68996502275	2114.4325100351
0	4270	348935.00592755156	1707.0078102406
0	4279	349652.199626248352	1696.6144611128
0	4290	350801.265858113788	2233.3781177178
0	4299	351450.775311375059	2061.7437480949
0	4308	352342.607752606296	2365.0034474675
0	4319	353339.048031577863	2491.6204255074
0	4324	354070.456994371511	2328.4242508002
0	4337	354978.83448195646	2529.0884640533
0	4342	355294.311517104529	1955.2634855267
0	4353	356266.725116455951	2129.9038840458
0	4360	356630.586841609353	1651.7523596529
0	4371	357478.428804036253	1868.9778774977
0	4380	357966.778281703615	1479.7156514134
0	4387	358521.808593906486	1553.155846009
0	4398	359843.646726105387	2254.1146110278
0	4409	360563.750660698886	2271.3622399606
0	4418	361306.846592947866	2114.5224741194
0	4425	361707.074832078095	1845.0657449663
0	4434	362593.066852865766	2029.3161921669
0	4445	363535.844610678057	2228.9980177302
0	4452	364137.946694484006	2098.4845418483
0	4459	364828.375100903239	2093.7045686413
0	4472	365713.57064559127	2177.7260349132
0	4479	366415.972357895251	2144.0448122565
0	4488	367157.332675717797	2206.6500458401
0	4495	367880.21249142478	2166.6418458335
0	4506	368765.077474806483	2184.6888973843
0	4513	369257.141893683027	1913.4824899491
0	4522	370010.235285758998	1933.4064362571
0	4535	371277.186929946792	2347.6581032854
0	4544	372116.842222865698	2618.2390366215
0	4549	372547.90409998971	2169.4580200128
0	4558	373532.268193876398	2255.0812639296
0	4567	374180.537492735339	2063.6952698696
0	4578	374746.404986176667	1764.6143648308
0	4587	375522.696740319979	1794.1946206614
0	4596	376283.108169771758	2018.2319991756
0	4603	376828.249822044772	2029.3177686632
0	4612	377428.472940064995	1811.2594819162
0	4623	378771.690955851254	2340.7574525569
0	4630	379279.2423013598	1951.8335734494
0	4641	380030.962805310291	1820.0474882964
0	4650	380911.502771638361	2098.0306443293
0	4657	381465.979801956591	1897.9549743701
0	4666	382471.242638770519	2040.4506888706
0	4675	383017.032540310202	1754.9215585459
0	4684	383753.160473099006	1837.1405874845
0	4693	384851.057692989735	2143.5643538833
0	4706	385668.596021644799	2219.166835025
0	4711	386218.53771228346	1915.8369950484
0	4722	386919.502154924004	1947.6988521405
0	4731	387651.006869506119	1982.4108478613
0	4738	388210.168198915227	1833.1200302113
0	4751	389129.61895954798	2076.3825033791
0	4758	389941.301480261637	2117.9587040562
0	4767	390543.781797308503	2174.0625222679
0	4778	391283.378444658621	2153.7594851106
0	4783	391624.559081671788	1612.8176772036
0	4792	392526.860355958371	1764.2610558774
0	4803	393268.965961737587	1985.587517079
0	4812	393868.68343935351	1773.4373821411
0	4821	395096.63854278627	2382.8424453735
0	4832	395858.649649936735	2528.1637180131
0	4837	396376.409952482238	2148.3718754724
0	4846	396880.447133816808	1765.2625696734
0	4859	397931.525938399165	2072.8762884624
0	4864	398329.311601119145	1643.996849237
0	4873	399192.963745538174	1931.6102460958
0	4882	399946.735465619742	2015.2095272206
0	4891	400616.846724925593	1932.71400542
0	4900	401533.422271069168	2035.7720762026
0	4911	402360.586323961644	2081.2070850749
0	4922	403284.471304155915	2427.3626748472
0	4927	403654.962318856298	2006.8853671197
0	4936	404601.643193000956	2211.4154659677
0	4947	405758.113749604701	2473.6424454488
0	4954	406372.034273855417	2221.4772641659
0	4963	406971.365474397346	1963.5672287084
0	4976	408023.780010547519	2221.8156334944
0	4981	408478.968044277311	1921.7413040344
0	4990	409032.631107978552	1646.4953685645
0	5001	409917.70155010748	1893.92153956
0	5008	410500.529252272129	1660.6386210769
0	5017	411247.476399689943	1864.2494441941
0	5028	412726.575393229753	2602.2560132202
0	5039	413565.236960817159	2547.4947684444
0	5048	414436.835809517682	2575.7080990355
0	5055	415143.6996827368	2414.747130638
0	5062	415609.931660676406	2044.6946998592
0	5071	416166.484991507634	1729.64918199
0	5082	417140.436791908026	1888.3734187111
0	5089	417571.857257466793	1916.0048106685
0	5100	418483.208164433047	2054.9264581874
0	5109	419373.69931647557	2180.2697487641
0	5120	420302.29039080444	2316.658168612
0	5127	420865.632188972116	2293.0181424133
0	5134	421178.933962108598	1714.9177229963
0	5145	422440.823006350576	2138.5326155461
0	5152	423100.733835808963	1949.8313697986
0	5165	424043.569148518175	2152.9512751848
0	5170	424383.029928524077	1809.4762145542
0	5183	425553.489625174582	2373.008386977
0	5190	426093.016982311413	2049.4478337932
0	5199	426717.047878727347	2043.2217034511
0	5206	427391.23722226362	1837.747597089
0	5219	428402.903919434204	2132.3389706668
0	5228	429168.121830420598	2193.8305555377
0	5233	429762.015235517203	1984.5904947259
0	5244	430385.118875093787	1982.2149556596
0	5251	431014.9714667816	1846.849636361
0	5260	431501.947870105534	1577.8823342174
0	5269	432239.465337060421	1735.0886581466
0	5278	432859.876432595804	1728.424865054
0	5291	433777.988294838025	2205.0190143753
0	5296	434114.410634525149	1689.6623312496
0	5307	435083.507758425577	1951.1143294629
0	5316	436053.999043442338	2276.0107486043
0	5325	436636.43698208037	2174.3721240666
0	5332	437068.933475576371	1881.3575531356
0	5343	438083.907980890974	1998.7694317941
0	5350	438847.065898915782	2184.9179795478
0	5363	439737.248888891221	2301.2672897894
0	5368	440288.578686816649	2100.3142242786
0	5379	441084.845649730445	2162.0389161631
0	5390	442088.119795778797	2350.8709068876
0	5399	442966.047861892761	2441.2239091471
0	5404	443636.918498156623	2223.3945004642
0	5413	444091.056512435929	2002.9367166571
0	5424	445072.453597700255	2106.4057358075
0	5435	446048.595320340277	2248.5051357653
0	5444	446868.462055223094	2380.3250564262
0	5453	447688.234172249244	2451.9386451691
0	5462	448511.830488033624	2463.2351676933
0	5471	449388.514281716229	2520.0522264931
0	5480	449949.545186944337	2261.3110146951
0	5485	450271.152681531416	1759.3221934978
0	5494	450976.017686538429	1587.5034048222
0	5503	451713.514258526297	1763.969071582
0	5512	452151.077779987859	1309.6494857222
0	5523	453167.598772561208	1794.5366845932
0	5530	453864.556115213813	1760.9359696973
0	5541	454859.82727976519	2221.0153080057
0	5548	455262.725318502666	1877.0537564065
0	5561	456282.861795416133	2084.6639367286
0	5570	456851.025649113612	1976.6959439032
0	5579	457583.425321150603	2018.7404325698
0	5584	458014.043931383671	1731.1821359675
0	5595	459210.331583814728	2359.3059347011
0	5606	460079.827559273723	2496.4022381231
0	5611	460391.812571883235	2034.2179598752
0	5622	461741.621287632767	2493.6977065634
0	5633	462507.446865085546	2427.6193058118
0	5640	463182.303176634047	2234.479757119
0	5651	463877.517752302844	2125.4052909091
0	5658	464458.573271473903	1951.1264063884
0	5667	464921.484197443384	1678.5598752089
0	5676	465825.8013127372	1948.2835604344
0	5683	466441.768295550752	1907.6704584528
0	5692	466917.575076548417	1795.997386286
0	5701	467783.710262691636	1786.070922995
0	5710	468560.205597896162	2015.6397282612
0	5719	469168.895496195216	1958.8493589777
0	5730	469972.098693531041	2029.2318844702
0	5737	470680.644513247569	1923.2089712285
0	5750	472111.221876600792	2635.5288337916
0	5755	472511.658213799854	2171.0528152529
0	5768	473492.707660049235	2279.3876278214
0	5773	474040.946680912783	1929.724804312
0	5782	474862.973165139591	2111.9965850841
0	5793	475667.210140451824	2174.5024804026
0	5802	476226.449064491352	1846.5310202446
0	5809	476770.095580117812	1592.6999945194
0	5818	477269.18804054152	1544.1483462229
0	5831	478473.798546893557	2047.2783280537
0	5840	479342.350558145007	2451.1417707894
0	5847	479942.594558419695	2321.5706774499
0	5854	480476.04880216535	2002.2502552718
0	5867	481675.389512814617	2333.0389546696
0	5872	482171.971219824663	2141.4532866329
0	5883	483036.873385822436	2109.6409793012
0	5890	483767.315780371464	2091.9262675568
0	5899	484240.90461004529	1929.648032086
0	5910	484943.198500620237	1747.0039129257
0	5917	485398.845041357017	1504.2297332548
0	5928	486193.104224419257	1871.1828335188
0	5935	486958.444636641106	1917.760754982
0	5946	487782.717325352168	2084.4380929135
0	5953	488401.387370517513	1837.6900032163
0	5962	489178.284039488097	1774.7632733546
0	5971	489623.540198430454	1697.3458433524
0	5984	490872.366386605462	2206.0609927867
0	5993	491528.042430616951	2277.8057796881
0	5998	491966.416280390731	1895.4822042491
0	6009	493015.666782204097	2143.3003955986
0	6020	493772.48932071965	2244.4468901027
0	6027	494619.654245814344	2434.4323509838
0	6034	495389.95606815446	2326.5047315508
0	6043	495910.09131185714	2137.6019911375
0	6052	496813.340698694847	2167.1212200075
0	6063	497690.681472653559	2161.0655967146
0	6070	498022.22272418443	1701.7844919115
0	6083	498836.980240652373	1667.8539834917
0	6088	499143.184803240037	1438.0198601168
0	6099	500088.385684741696	1903.7015452981
0	6110	501057.811866235024	2220.8316255827
0	6115	501741.086907964236	2123.710425524
0	6128	502701.632750267199	2252.9926157556
0	6137	503523.553385864979	2465.74151963
0	6142	504064.700222946739	2112.8407030832
0	6151	504804.737540474197	2103.104790207
0	6160	505532.093987194856	2008.5406013299
0	6169	506341.695246147028	2075.1559332479
0	6182	506954.544424871018	1879.2612535413
0	6189	507473.038304597175	1593.8449337147
0	6198	508473.369119642337	2096.4548192918
0	6209	508874.961034627667	1920.4166097566
0	6218	509636.974023934489	1896.093187714
0	6223	510124.354763282498	1620.5937989987
0	6236	511062.817395664787	2187.8563610371
0	6243	511579.685084894335	1942.7110609598
0	6250	512239.458774821869	1998.9792066626
0	6261	513498.280260711944	2435.4628650472
0	6272	514324.338824115729	2487.4019347597
0	6281	514979.412235971576	2345.8780704997
0	6286	515534.670258220321	2016.4303509984
0	6299	516438.300646003372	2113.9618218876
0	6304	516838.311587227545	1858.899351256
0	6315	517494.163200119547	1736.8135876022
0	6324	518068.67712428797	1630.3764782846
0	6331	518665.03291558478	1637.3271482997
0	6340	519356.255412614009	1654.8228976317
0	6353	520488.48915668208	2364.4231790677
0	6360	521338.597165234423	2411.0742185265
0	6367	521745.737881818822	1941.0372847226
0	6380	522724.45987500254	2235.9707183205
0	6387	523521.184384916014	2172.8009590879
0	6398	524281.820343621112	2230.6000974029
0	6407	525180.390569195188	2455.9306941926
0	6416	526030.774549255184	2435.8858171385
0	6421	526330.781605560369	2048.9612619393
0	6432	527209.034035261757	2028.6434660666
0	6439	527601.239285711236	1570.4647364561
0	6452	528525.746042747087	1937.6640167087
0	6459	529256.624043267257	1849.5684043039
0	6466	529844.365184800736	2023.7165304366
0	6477	530943.323388230092	2417.577345483
0	6486	531635.646182997189	2298.4379435889
0	6493	532331.272726971692	2212.4510703608
0	6502	532964.921530522442	1990.8922999632
0	6511	533852.824472961984	2044.184774207
0	6520	534540.745508624277	2148.3930709306
0	6529	535509.007608471475	2256.4591081347
0	6540	536427.602981496639	2441.6308160406
0	6547	536927.722350508011	2077.6187472045
0	6560	537728.198081441261	2078.2509567216
0	6565	538062.294949404933	1616.9143537525
0	6578	539190.270072268359	1925.7759769913
0	6583	539810.072370059825	2081.8742886186
0	6594	540720.174132892899	2197.3886647727
0	6601	541066.778874630146	1876.5088023618
0	6610	542165.66560110081	2144.8769210838
0	6621	543040.157604077869	2171.6671147384
0	6632	543729.025422083251	1961.0875903163
0	6641	544549.70429842364	2077.5958334561
0	6650	545175.457059312649	2062.1881050523
0	6657	545890.608128858767	2161.5827067755
0	6666	546486.501940386407	1936.7976419628
0	6675	547044.641578244083	1869.1845189314
0	6684	548083.379684016146	2128.6794026848
0	6693	548738.954862859138	2144.3175996188
0	6700	549095.974149461874	1755.6742341723
0	6709	550150.877026934214	1976.0386861861
0	6718	550812.346792733334	2032.8768647276
0	6729	551802.88351094354	2166.7687331792
0	6738	552431.34996271696	2123.0026458856
0	6749	553006.913601374292	1834.9347568117
0	6756	553641.54049088251	1618.3071375825
0	6767	554341.140296962151	1810.6466320809
0	6772	554803.497922327408	1796.5843209531
0	6781	555242.418375704476	1541.4541066624
0	6790	556519.484013458752	2178.3437164966
0	6801	557563.745120912828	2373.8974958193
0	6808	557992.277821060308	1932.277065888
0	6821	558840.111576067322	1993.1726817973
0	6828	559645.999243157023	2040.0423996616
0	6837	560406.028771866152	2105.3342973813
0	6846	560872.292361734474	2032.1807856672
0	6853	561584.120862744788	1909.3830061611
0	6864	562571.217324631327	2072.30845741
0	6873	563253.642552718559	2060.2252808399
0	6882	564099.09386713993	2238.3188414387
0	6891	564841.269388608674	2105.4556963965
0	6902	565907.466037385206	2381.6204681061
0	6911	566750.700874859508	2434.4853905495
0	6916	567438.591400394257	2411.1901218072
0	6925	567870.960323838558	1963.4942864534
0	6938	569176.454479387071	2425.7536045276
0	6945	569759.859951166477	2145.8172940649
0	6954	570532.053631776985	2064.7805265617
0	6961	570915.324391890358	1738.8699125033
0	6970	571995.107549848076	1953.217789717
0	6979	573017.954066488933	2157.1354094893
0	6988	573857.913828687783	2215.5363817234
0	7001	574806.802575895603	2264.4923417363
0	7006	575288.771881163161	1886.25579332
0	7015	576061.560144089203	1766.9603657909
0	7026	577039.279686939012	2232.4771110434
0	7033	577422.927809273865	1716.2054906599
0	7044	578568.907772284042	2239.9545973632
0	7051	579198.326235311147	2042.9889603518
0	7064	580068.923413194757	2054.4026041869
0	7069	580437.460012268316	1591.597680375
0	7078	581132.38599705514	1661.282514967
0	7089	581897.473983792629	1828.5505705979
0	7098	582458.99460297082	1661.8758351076
0	7109	583537.754040118349	2232.1411889512
0	7118	584312.195908790496	2396.5508524328
0	7127	585143.157000560355	2469.6999073494
0	7136	585976.891559595284	2439.1375194769
0	7143	586464.203256787774	2152.0073479973
0	7152	587333.349391864655	2190.1923913043
0	7159	588271.6346661095	2294.7431065142
0	7168	589022.992898896379	2197.7786649484
0	7177	589466.685995645864	1745.2913476154
0	7190	590587.455672863914	2177.5539575145
0	7199	591201.096974266736	2008.4329627454
0	7208	591576.070462586401	1604.613290308
0	7215	592014.656878542198	1427.2012056783
0	7224	592523.811034206344	1322.7140599396
0	7235	593175.446132384284	1599.3756697979
0	7244	593552.388507965996	1527.3634493351
0	7249	593948.565994296267	1360.5315974448
0	7262	594987.114318553403	1811.6681861691
0	7271	595517.342017963573	1964.9535099976
0	7276	596051.636761939197	1850.4511148203
0	7285	596654.766068654179	1667.6517501008
0	7296	597620.567880990028	2103.2258630265
0	7307	598586.797016859099	2306.5975342412
0	7314	599073.373388825029	2256.1538431328
0	7321	599623.567299032628	1916.4172693156
0	7332	600568.50049789068	1981.7034810316
0	7341	601233.08281945069	1966.9879290741
0	7348	601790.972894663035	1811.7276409641
0	7357	602527.993063302755	1708.5892572999
0	7370	603654.275224311321	2241.8974231929
0	7377	604138.213463919281	1955.529512465
0	7384	604788.140083942606	1963.4741093963
1	3149	260147.083612717707	348
1	3154	260687.402807408963	349
1	3167	261636.76204914229	350
1	3174	262416.229017125461	351
1	3185	263094.336366327498	352
1	3192	263810.867786547188	353
1	3199	264341.782827582229	354
1	3208	264881.198970414717	355
1	3221	265899.825152847935	356
1	3228	266604.784451890756	357
1	3237	267454.640773404409	358
1	3244	267850.242037838344	359
1	3253	268790.381772117708	360
1	3262	269318.635776964967	361
1	3275	270248.318116553147	362
1	3280	270674.032725999151	363
1	3291	271554.642191017066	364
1	3302	272243.483876343836	365
1	3309	273026.976766996105	366
1	3316	273500.814308132996	367
1	3325	274136.186001962071	368
1	3336	274921.899906685595	369
1	3347	275647.873632470166	370
1	3356	276470.065973745679	371
1	3365	277247.228922368979	372
1	3374	277906.595035549274	373
1	3379	278370.675444742686	374
1	3392	279600.181740615538	375
1	3401	280345.166627923048	376
1	3406	280660.98002465444	377
1	3415	281870.94179405833	378
1	3424	282331.606879178456	379
1	3433	282801.389650488294	380
1	3446	284426.407901057995	381
1	3451	284844.168359600029	382
1	3464	285554.277802258752	383
1	3469	285915.550878597446	384
1	3480	286873.423778358869	385
1	3489	287467.079422529809	386
1	3496	287800.750092929252	387
1	3509	288518.784817401342	388
1	3518	289379.339079419173	389
1	3525	289907.818569755204	390
1	3534	290566.960101015888	391
1	3541	290957.182620931439	392
1	3550	291362.995474319927	393
1	3559	292669.498449610568	394
1	3572	293513.482483662687	395
1	3579	294113.944303337507	396
1	3588	294490.532149141677	397
1	3595	294855.284630460687	398
1	3600	295180.47803230586	399
1	3613	296355.356623185822	400
1	3624	297633.637207886228	401
1	3631	298391.912759514549	402
1	3640	298878.19065791557	403
1	3649	299663.545071613067	404
1	3662	300437.23345077599	405
1	3667	300775.108122965345	406
1	3678	301948.05794837887	407
1	3689	302559.941966878274	408
1	3694	302932.506867405051	409
1	3703	303991.122984560231	410
1	3712	304552.524841111177	411
1	3721	305324.666616367199	412
1	3730	306218.062946945453	413
1	3741	306921.286106575304	414
1	3748	307258.964547095844	415
1	3757	307651.225761976116	416
1	3768	308425.65713147635	417
1	3777	308973.979523358889	418
1	3784	309362.406976148509	419
1	3793	310225.26885448026	420
1	3804	311108.707021828764	421
1	3811	311836.196803115331	422
1	3820	312588.146444549807	423
1	3829	313438.992215506755	424
1	3838	313845.282723521836	425
1	3851	314994.62151587943	426
1	3860	315789.104977436386	427
1	3867	316278.202702291332	428
1	3874	317002.667542733275	429
1	3885	317986.529433634155	430
1	3892	318347.699380014115	431
1	3905	319306.964590586744	432
1	3912	319853.265311568998	433
1	3919	320441.344499588035	434
1	3928	321498.052994767226	435
1	3937	322345.746213058032	436
1	3946	322841.020643105753	437
1	3955	323969.413511641345	438
1	3964	324435.862082708649	439
1	3973	325083.290633931778	440
1	3986	326255.103402351982	441
1	3993	326807.18102627436	442
1	4002	327667.819725489266	443
1	4009	328259.987107990332	444
1	4018	328662.685872009046	445
1	4029	329563.773100823185	446
1	4036	330128.854912379778	447
1	4049	331230.162426084301	448
1	4058	331787.476235814414	449
1	4067	332633.885650942124	450
1	4072	333341.309166373707	451
1	4085	333953.716524085052	452
1	4092	334432.070955634139	453
1	4099	334759.198850858978	454
1	4110	336319.140156917296	455
1	4119	336966.039598826341	456
1	4128	337757.899377448507	457
1	4135	338340.603826940082	458
1	4146	339290.132074244343	459
1	4155	339985.228620283328	460
1	4166	341001.015388034307	461
1	4173	341658.473521890142	462
1	4180	342652.695589000382	463
1	4189	343007.941104099177	464
1	4200	344143.3564944193	465
1	4207	344547.433815803402	466
1	4218	345145.407509431266	467
1	4225	345488.877744041406	468
1	4236	346288.789710402512	469
1	4245	347221.809153584786	470
1	4256	347955.585165135585	471
1	4263	348502.68996502275	472
1	4270	348935.00592755156	473
1	4279	349652.199626248352	474
1	4290	350801.265858113788	475
1	4299	351450.775311375059	476
1	4308	352342.607752606296	477
1	4319	353339.048031577863	478
1	4324	354070.456994371511	479
1	4337	354978.83448195646	480
1	4342	355294.311517104529	481
1	4353	356266.725116455951	482
1	4360	356630.586841609353	483
1	4371	357478.428804036253	484
1	4380	357966.778281703615	485
1	4387	358521.808593906486	486
1	4398	359843.646726105387	487
1	4409	360563.750660698886	488
1	4418	361306.846592947866	489
1	4425	361707.074832078095	490
1	4434	362593.066852865766	491
1	4445	363535.844610678057	492
1	4452	364137.946694484006	493
1	4459	364828.375100903239	494
1	4472	365713.57064559127	495
1	4479	366415.972357895251	496
1	4488	367157.332675717797	497
1	4495	367880.21249142478	498
1	4506	368765.077474806483	499
1	4513	369257.141893683027	500
1	4522	370010.235285758998	501
1	4535	371277.186929946792	502
1	4544	372116.842222865698	503
1	4549	372547.90409998971	504
1	4558	373532.268193876398	505
1	4567	374180.537492735339	506
1	4578	374746.404986176667	507
1	4587	375522.696740319979	508
1	4596	376283.108169771758	509
1	4603	376828.249822044772	510
1	4612	377428.472940064995	511
1	4623	378771.690955851254	512
1	4630	379279.2423013598	513
1	4641	380030.962805310291	514
1	4650	380911.502771638361	515
1	4657	381465.979801956591	516
1	4666	382471.242638770519	517
1	4675	383017.032540310202	518
1	4684	383753.160473099006	519
1	4693	384851.057692989735	520
1	4706	385668.596021644799	521
1	4711	386218.53771228346	522
1	4722	386919.502154924004	523
1	4731	387651.006869506119	524
1	4738	388210.168198915227	525
1	4751	389129.61895954798	526
1	4758	389941.301480261637	527
1	4767	390543.781797308503	528
1	4778	391283.378444658621	529
1	4783	391624.559081671788	530
1	4792	392526.860355958371	531
1	4803	393268.965961737587	532
1	4812	393868.68343935351	533
1	4821	395096.63854278627	534
1	4832	395858.649649936735	535
1	4837	396376.409952482238	536
1	4846	396880.447133816808	537
1	4859	397931.525938399165	538
1	4864	398329.311601119145	539
1	4873	399192.963745538174	540
1	4882	399946.735465619742	541
1	4891	400616.846724925593	542
1	4900	401533.422271069168	543
1	4911	402360.586323961644	544
1	4922	403284.471304155915	545
1	4927	403654.962318856298	546
1	4936	404601.643193000956	547
1	4947	405758.113749604701	548
1	4954	406372.034273855417	549
1	4963	406971.365474397346	550
1	4976	408023.780010547519	551
1	4981	408478.968044277311	552
1	4990	409032.631107978552	553
1	5001	409917.70155010748	554
1	5008	410500.529252272129	555
1	5017	411247.476399689943	556
1	5028	412726.575393229753	557
1	5039	413565.236960817159	558
1	5048	414436.835809517682	559
1	5055	415143.6996827368	560
1	5062	415609.931660676406	561
1	5071	416166.484991507634	562
1	5082	417140.436791908026	563
1	5089	417571.857257466793	564
1	5100	418483.208164433047	565
1	5109	419373.69931647557	566
1	5120	420302.29039080444	567
1	5127	420865.632188972116	568
1	5134	421178.933962108598	569
1	5145	422440.823006350576	570
1	5152	423100.733835808963	571
1	5165	424043.569148518175	572
1	5170	424383.029928524077	573
1	5183	425553.489625174582	574
1	5190	426093.016982311413	575
1	5199	426717.047878727347	576
1	5206	427391.23722226362	577
1	5219	428402.903919434204	578
1	5228	429168.121830420598	579
1	5233	429762.015235517203	580
1	5244	430385.118875093787	581
1	5251	431014.9714667816	582
1	5260	431501.947870105534	583
1	5269	432239.465337060421	584
1	5278	432859.876432595804	585
1	5291	433777.988294838025	586
1	5296	434114.410634525149	587
1	5307	435083.507758425577	588
1	5316	436053.999043442338	589
1	5325	436636.43698208037	590
1	5332	437068.933475576371	591
1	5343	438083.907980890974	592
1	5350	438847.065898915782	593
1	5363	439737.248888891221	594
1	5368	440288.578686816649	595
1	5379	441084.845649730445	596
1	5390	442088.119795778797	597
1	5399	442966.047861892761	598
1	5404	443636.918498156623	599
1	5413	444091.056512435929	600
1	5424	445072.453597700255	601
1	5435	446048.595320340277	602
1	5444	446868.462055223094	603
1	5453	447688.234172249244	604
1	5462	448511.830488033624	605
1	5471	449388.514281716229	606
1	5480	449949.545186944337	607
1	5485	450271.152681531416	608
1	5494	450976.017686538429	609
1	5503	451713.514258526297	610
1	5512	452151.077779987859	611
1	5523	453167.598772561208	612
1	5530	453864.556115213813	613
1	5541	454859.82727976519	614
1	5548	455262.725318502666	615
1	5561	456282.861795416133	616
1	5570	456851.025649113612	617
1	5579	457583.425321150603	618
1	5584	458014.043931383671	619
1	5595	459210.331583814728	620
1	5606	460079.827559273723	621
1	5611	460391.812571883235	622
1	5622	461741.621287632767	623
1	5633	462507.446865085546	624
1	5640	463182.303176634047	625
1	5651	463877.517752302844	626
1	5658	464458.573271473903	627
1	5667	464921.484197443384	628
1	5676	465825.8013127372	629
1	5683	466441.768295550752	630
1	5692	466917.575076548417	631
1	5701	467783.710262691636	632
1	5710	468560.205597896162	633
1	5719	469168.895496195216	634
1	5730	469972.098693531041	635
1	5737	470680.644513247569	636
1	5750	472111.221876600792	637
1	5755	472511.658213799854	638
1	5768	473492.707660049235	639
1	5773	474040.946680912783	640
1	5782	474862.973165139591	641
1	5793	475667.210140451824	642
1	5802	476226.449064491352	643
1	5809	476770.095580117812	644
1	5818	477269.18804054152	645
1	5831	478473.798546893557	646
1	5840	479342.350558145007	647
1	5847	479942.594558419695	648
1	5854	480476.04880216535	649
1	5867	481675.389512814617	650
1	5872	482171.971219824663	651
1	5883	483036.873385822436	652
1	5890	483767.315780371464	653
1	5899	484240.90461004529	654
1	5910	484943.198500620237	655
1	5917	485398.845041357017	656
1	5928	486193.104224419257	657
1	5935	486958.444636641106	658
1	5946	487782.717325352168	659
1	5953	488401.387370517513	660
1	5962	489178.284039488097	661
1	5971	489623.540198430454	662
1	5984	490872.366386605462	663
1	5993	491528.042430616951	664
1	5998	491966.416280390731	665
1	6009	493015.666782204097	666
1	6020	493772.48932071965	667
1	6027	494619.654245814344	668
1	6034	495389.95606815446	669
1	6043	495910.09131185714	670
1	6052	496813.340698694847	671
1	6063	497690.681472653559	672
1	6070	498022.22272418443	673
1	6083	498836.980240652373	674
1	6088	499143.184803240037	675
1	6099	500088.385684741696	676
1	6110	501057.811866235024	677
1	6115	501741.086907964236	678
1	6128	502701.632750267199	679
1	6137	503523.553385864979	680
1	6142	504064.700222946739	681
1	6151	504804.737540474197	682
1	6160	505532.093987194856	683
1	6169	506341.695246147028	684
1	6182	506954.544424871018	685
1	6189	507473.038304597175	686
1	6198	508473.369119642337	687
1	6209	508874.961034627667	688
1	6218	509636.974023934489	689
1	6223	510124.354763282498	690
1	6236	511062.817395664787	691
1	6243	511579.685084894335	692
1	6250	512239.458774821869	693
1	6261	513498.280260711944	694
1	6272	514324.338824115729	695
1	6281	514979.412235971576	696
1	6286	515534.670258220321	697
1	6299	516438.300646003372	698
1	6304	516838.311587227545	699
1	6315	517494.163200119547	700
1	6324	518068.67712428797	701
1	6331	518665.03291558478	702
1	6340	519356.255412614009	703
1	6353	520488.48915668208	704
1	6360	521338.597165234423	705
1	6367	521745.737881818822	706
1	6380	522724.45987500254	707
1	6387	523521.184384916014	708
1	6398	524281.820343621112	709
1	6407	525180.390569195188	710
1	6416	526030.774549255184	711
1	6421	526330.781605560369	712
1	6432	527209.034035261757	713
1	6439	527601.239285711236	714
1	6452	528525.746042747087	715
1	6459	529256.624043267257	716
1	6466	529844.365184800736	717
1	6477	530943.323388230092	718
1	6486	531635.646182997189	719
1	6493	532331.272726971692	720
1	6502	532964.921530522442	721
1	6511	533852.824472961984	722
1	6520	534540.745508624277	723
1	6529	535509.007608471475	724
1	6540	536427.602981496639	725
1	6547	536927.722350508011	726
1	6560	537728.198081441261	727
1	6565	538062.294949404933	728
1	6578	539190.270072268359	729
1	6583	539810.072370059825	730
1	6594	540720.174132892899	731
1	6601	541066.778874630146	732
1	6610	542165.66560110081	733
1	6621	543040.157604077869	734
1	6632	543729.025422083251	735
1	6641	544549.70429842364	736
1	6650	545175.457059312649	737
1	6657	545890.608128858767	738
1	6666	546486.501940386407	739
1	6675	547044.641578244083	740
1	6684	548083.379684016146	741
1	6693	548738.954862859138	742
1	6700	549095.974149461874	743
1	6709	550150.877026934214	744
1	6718	550812.346792733334	745
1	6729	551802.88351094354	746
1	6738	552431.34996271696	747
1	6749	553006.913601374292	748
1	6756	553641.54049088251	749
1	6767	554341.140296962151	750
1	6772	554803.497922327408	751
1	6781	555242.418375704476	752
1	6790	556519.484013458752	753
1	6801	557563.745120912828	754
1	6808	557992.277821060308	755
1	6821	558840.111576067322	756
1	6828	559645.999243157023	757
1	6837	560406.028771866152	758
1	6846	560872.292361734474	759
1	6853	561584.120862744788	760
1	6864	562571.217324631327	761
1	6873	563253.642552718559	762
1	6882	564099.09386713993	763
1	6891	564841.269388608674	764
1	6902	565907.466037385206	765
1	6911	566750.700874859508	766
1	6916	567438.591400394257	767
1	6925	567870.960323838558	768
1	6938	569176.454479387071	769
1	6945	569759.859951166477	770
1	6954	570532.053631776985	771
1	6961	570915.324391890358	772
1	6970	571995.107549848076	773
1	6979	573017.954066488933	774
1	6988	573857.913828687783	775
1	7001	574806.802575895603	776
1	7006	575288.771881163161	777
1	7015	576061.560144089203	778
1	7026	577039.279686939012	779
1	7033	577422.927809273865	780
1	7044	578568.907772284042	781
1	7051	579198.326235311147	782
1	7064	580068.923413194757	783
1	7069	580437.460012268316	784
1	7078	581132.38599705514	785
1	7089	581897.473983792629	786
1	7098	582458.99460297082	787
1	7109	583537.754040118349	788
1	7118	584312.195908790496	789
1	7127	585143.157000560355	790
1	7136	585976.891559595284	791
1	7143	586464.203256787774	792
1	7152	587333.349391864655	793
1	7159	588271.6346661095	794
1	7168	589022.992898896379	795
1	7177	589466.685995645864	796
1	7190	590587.455672863914	797
1	7199	591201.096974266736	798
1	7208	591576.070462586401	799
1	7215	592014.656878542198	800
1	7224	592523.811034206344	801
1	7235	593175.446132384284	802
1	7244	593552.388507965996	803
1	7249	593948.565994296267	804
1	7262	594987.114318553403	805
1	7271	595517.342017963573	806
1	7276	596051.636761939197	807
1	7285	596654.766068654179	808
1	7296	597620.567880990028	809
1	7307	598586.797016859099	810
1	7314	599073.373388825029	811
1	7321	599623.567299032628	812
1	7332	600568.50049789068	813
1	7341	601233.08281945069	814
1	7348	601790.972894663035	815
1	7357	602527.993063302755	816
1	7370	603654.275224311321	817
1	7377	604138.213463919281	818
1	7384	604788.140083942606	819

