version 2
run Pipelined_3Teachers-7-20190105-10:57:19-24516
attr configname Pipelined_3Teachers
attr datetime 20190105-10:57:19
attr experiment Pipelined_3Teachers
attr inifile ../simulations/omnetpp.ini
attr iterationvars "$0=\"uniform\""
attr iterationvarsf uniform-
attr measurement "$0=\"uniform\""
attr network PipelinedExamSession
attr processid 24516
attr repetition 7
attr replication #7
attr resultdir results
attr runnumber 7
attr seedset 7
param **.teachersNumber 3
param **.answerTimeDistribution "\"uniform\""
param **.minUniform 300
param **.maxUniform 900
param **.scaleLognormal 6.2854
param **.shapeLognormal 0.4724

vector 0 PipelinedExamSession examinationTime:vector ETV
attr source examFinished
vector 1 PipelinedExamSession studentID:vector ETV
attr source student
0	3136	260203.390188608332	1347.1882080194
0	3147	261444.598210137351	1924.1136986297
0	3154	262066.682078875615	2052.3919010069
0	3163	263015.862991847112	2112.8652045038
0	3176	263891.593722766279	2107.0302770007
0	3185	264542.817626986666	2087.3427593149
0	3190	264978.741418384029	1821.9464692287
0	3199	265516.387743316604	1624.7940205503
0	3210	266501.098294509588	1958.2806675229
0	3217	266876.754855969934	1435.2353517897
0	3230	268087.543191388263	2023.9678676706
0	3235	268646.358453109874	1788.0038337316
0	3244	269445.357799390345	2065.9584035631
0	3253	270190.458137216059	2102.9149458278
0	3262	270715.729395998656	1810.5638406705
0	3271	271803.94091131167	2002.6918572374
0	3282	272828.050600318252	2191.311660083
0	3289	273286.144523788257	1840.248565888
0	3298	274315.341471042498	2023.8833792042
0	3309	275117.992749670534	1969.8353526648
0	3316	276020.062153833002	2013.9801312704
0	3325	276540.386037016302	1791.8090522289
0	3334	277337.81107566321	1794.146266859
0	3343	278132.195147965119	1990.4320190661
0	3352	278492.577586323038	1504.2901371606
0	3361	279006.349537521616	1157.3288164102
0	3372	280178.696629777566	1866.266660532
0	3383	280955.698790727199	2115.508392686
0	3388	281317.720175022275	1746.3365041651
0	3397	282058.259690227003	1787.9030952696
0	3406	282749.813340604321	1794.1145498771
0	3415	283319.077838910759	1667.1675732359
0	3426	284351.773787895234	1998.8758065272
0	3433	284881.835416937263	1643.7413939741
0	3442	285949.310059100406	2072.8138379753
0	3453	286975.844547338799	2216.7991074733
0	3462	287657.571114040926	2130.0873823464
0	3471	288560.241499543206	2159.3517739791
0	3482	289389.033289114029	2124.5788706001
0	3487	290122.80811630191	2135.2259156294
0	3500	290988.791200658322	2261.0741099808
0	3507	291718.166060512901	2329.1327713989
0	3516	292459.980686008946	2287.0449403301
0	3523	292934.135841066034	1945.3446404077
0	3534	294144.738381123186	2356.5428684
0	3541	294594.284401880593	1956.4442699309
0	3554	295661.908189114199	2201.2545090169
0	3561	296121.414053393544	1846.7505417299
0	3570	296859.121346706541	1808.6121771019
0	3577	297397.727110795693	1735.8189216815
0	3586	297909.157718438672	1758.8348994032
0	3599	298619.959493866207	1594.2320081871
0	3606	299395.562258362787	1816.7906573508
0	3613	299853.676589811238	1836.7517352104
0	3624	300711.758506391214	2091.799012525
0	3635	301571.180126024427	2115.8202208579
0	3640	301880.011289846169	1777.4940975476
0	3649	302666.281759645807	1761.1431292724
0	3658	303665.912861516716	2094.7327354923
0	3669	304672.718257131072	2281.0461992864
0	3676	305023.080547945591	1832.4669106398
0	3685	305730.789926089363	1671.5179596562
0	3696	306588.45451539384	1819.1023048013
0	3703	307135.691989772038	1737.4777605291
0	3712	307981.804834585654	1804.8838314135
0	3721	309169.437138363737	2108.6516634095
0	3734	310193.701574625466	2348.3860391658
0	3741	310572.410534787942	2017.8226527292
0	3752	311363.827309291829	2041.3355077151
0	3757	311749.866214720552	1556.1646400951
0	3766	312363.992469292153	1702.4039492011
0	3777	313455.490616709014	2091.6633074172
0	3784	313883.730270853286	1720.7365681417
0	3797	314929.489770904204	2272.0145772211
0	3804	315669.756372598952	2179.4069829863
0	3815	316492.067551938838	2313.9549587388
0	3820	316877.557335840559	1948.0675649364
0	3829	317638.653541635743	1883.9626567438
0	3838	318143.061718577541	1650.9941666387
0	3849	319003.025015490151	1622.5503137335
0	3856	319864.471073169283	1950.1851298381
0	3867	320837.522350531093	2198.1071063317
0	3874	321289.730975450969	1759.8851587158
0	3883	322410.99216216246	2021.6466207057
0	3896	323259.283675113715	2086.1906045582
0	3905	323892.186838109068	1975.1014762558
0	3912	324705.522587662585	1992.885406455
0	3921	325473.23481529022	2213.9511401765
0	3932	326112.794935656734	2220.6080975477
0	3937	326507.101889653154	1727.9399143998
0	3946	326969.18515088039	1294.5868527051
0	3955	327818.616596376546	1705.8216607198
0	3964	328318.839095905446	1425.9284776635
0	3973	329518.434466654457	2079.5237997081
0	3982	329919.719735858985	1836.9297115132
0	3995	330573.205184424318	1659.2754678335
0	4004	331216.104295989521	1584.0381568763
0	4013	331893.69149040433	1870.0656514149
0	4020	332685.374977067135	2112.1697926428
0	4031	333608.700329437874	2392.5960334484
0	4036	334108.042783336736	2214.3512929324
0	4047	334766.930068843089	2045.7275702152
0	4056	335414.311792049579	1805.6114626117
0	4063	336132.427965570263	1916.7817092966
0	4074	336688.119354005925	1825.1049390994
0	4081	337031.421817420072	1592.414916493
0	4090	337821.788716362811	1616.9788362924
0	4101	339002.209942555077	2291.3454623893
0	4112	339888.166153477527	2457.1085151751
0	4119	340501.917106378846	2273.2592423446
0	4126	341072.354869544528	2033.8802644517
0	4137	341979.522918630414	2091.3567651529
0	4144	342285.649343160935	1658.682857221
0	4153	343166.618451196723	1753.5563517362
0	4166	344364.084104821109	2315.089830989
0	4171	344743.225895846286	1962.2271940112
0	4182	345850.010736426362	2257.0548897609
0	4193	346748.5074546654	2384.4233498443
0	4200	347251.73687017525	2034.2559596524
0	4211	348123.961571976565	2058.6935101077
0	4216	348516.492124227829	1767.9846695624
0	4227	349249.046571180247	1996.8669289257
0	4238	350037.407620204635	1913.4460482281
0	4247	350739.156274404399	1984.4029926695
0	4254	351269.004901126049	1908.7343848776
0	4261	351633.72049550528	1596.3128753006
0	4272	352629.240783210866	1890.0845088065
0	4281	353509.845333918951	2090.4530806001
0	4292	354131.558788055576	2180.3196319845
0	4297	354655.263391463108	2003.3618223388
0	4306	355084.848705818898	1539.1294030007
0	4315	356213.824880914784	2082.2660928592
0	4324	356688.068169867642	1756.2370369211
0	4337	357529.654876375593	2104.6453619376
0	4342	358149.139656079955	1861.8401398882
0	4353	358791.676002508052	1764.6413273178
0	4360	359531.698475964389	2002.0435995888
0	4369	360278.748657368145	1937.5407175161
0	4380	360769.451858662091	1734.3314547557
0	4387	361566.641560429729	1901.2157122605
0	4396	362177.723634475864	1800.8023097645
0	4405	362961.858571646758	2038.4724569041
0	4414	363905.236409325176	2082.0104883984
0	4423	364400.321439793357	1805.8818823658
0	4432	365656.535161240049	2328.0151267536
0	4441	366315.781586570688	2122.0283634961
0	4450	367109.212451241934	2183.2690721378
0	4461	367793.685626518004	2090.1960204821
0	4472	368661.430951673561	2237.8419157583
0	4479	369370.176094444492	2104.6324709896
0	4486	369835.827934741998	1970.7825682126
0	4499	370991.816110024253	2330.3851583507
0	4504	371334.25492937679	1902.2712175269
0	4517	372143.046968663136	1952.393856179
0	4524	372677.800602000231	1685.984491976
0	4535	373492.426188988636	1820.7215791102
0	4542	373887.137842923428	1744.0908742603
0	4551	374695.060721319194	1909.3170119449
0	4562	375576.571206981341	2084.1450179927
0	4567	376006.152744730959	2067.8302859422
0	4578	376819.488721154655	2034.1880673543
0	4585	377522.706803446661	1946.1355964653
0	4596	378349.906535586368	2176.5884863213
0	4603	379036.050905194159	2131.5141289495
0	4612	379539.524481073047	1784.5943178982
0	4623	380234.188909409593	1653.9586768951
0	4634	381065.273159695815	1957.299966272
0	4643	381894.535105163257	2310.087942984
0	4648	382277.823358308549	1955.5157426745
0	4661	383267.373570380759	2202.1004106849
0	4670	383826.336126448613	1931.8010212854
0	4675	384342.904704529819	1710.3073437698
0	4688	385320.997424935948	2053.6238545552
0	4695	386051.275188569006	2224.9390621204
0	4704	386626.209173072156	2008.4551331587
0	4711	387483.424430899348	2162.4270059634
0	4724	388386.014277767416	2319.3630628288
0	4729	388746.733529912334	1868.5226201545
0	4742	389560.944648273315	2004.0163728409
0	4749	390329.514851979937	1943.5005742125
0	4758	390852.017498435478	1709.1558689252
0	4765	391275.392575236063	1714.4479269627
0	4776	392416.295867599573	1996.4497831184
0	4785	393174.53193152326	2109.232347412
0	4796	394035.602087248143	2299.2303960957
0	4803	394681.907609710496	2184.1305180453
0	4812	395175.636942219015	1785.5115832295
0	4823	396036.868640827041	2001.2665535789
0	4832	396883.403436234247	2046.9095852226
0	4839	397489.72302395853	2189.9549427442
0	4846	398248.401898657929	2211.5332578309
0	4857	398875.524090277057	1992.1206540428
0	4864	399214.084967924309	1540.1908493601
0	4873	400109.609948471216	1714.4244572148
0	4882	400653.831567848129	1771.6999414377
0	4895	401689.802651898963	1928.1229533255
0	4904	402585.863212868599	2139.3379661255
0	4909	403366.862114612041	2413.0320275668
0	4922	404180.75144444595	2490.948792547
0	4927	404741.628305660588	2155.765092792
0	4936	405358.890118589652	1888.512449339
0	4949	406448.797068698358	2268.0456242524
0	4954	406984.283548453849	1996.4332269039
0	4963	407818.4235562105	2127.0884403493
0	4974	408754.634103644666	2305.8370349463
0	4983	409258.718720823553	1986.9135925546
0	4992	409926.951818726984	2008.5473387036
0	5001	410510.316848941175	1750.0711326487
0	5012	411313.458592817215	1842.7209516987
0	5019	412091.484275087742	2149.5868708938
0	5030	413017.90016563612	2432.7439339366
0	5037	413757.501715840799	2444.0431230236
0	5046	414553.456142172245	2425.893618213
0	5057	415376.685354625834	2358.7851889897
0	5062	415716.035220399527	1835.0669545122
0	5071	416313.981685973732	1693.7254747376
0	5080	417041.080363327666	1664.3950087018
0	5089	417489.740563463449	1450.1709479839
0	5098	418194.243089156254	1398.7133247312
0	5107	418710.001878021314	1285.1818850264
0	5116	419663.429116504296	1865.3754726984
0	5127	420506.518206791982	2084.71834925
0	5136	420996.158146485717	1791.1172783934
0	5143	421605.046662222624	1778.6707696505
0	5152	422411.892198678136	1895.0310485903
0	5163	423251.368767768175	2102.4163233116
0	5174	424127.425096510009	2123.9469991531
0	5183	424888.582596369119	2236.0838681459
0	5190	425530.163971753822	2191.213069763
0	5197	426101.530017703803	1974.1049211938
0	5210	427368.72867071073	2480.1460743416
0	5217	428193.567516608196	2577.8082344681
0	5224	428588.008645456317	2103.9543217979
0	5235	429688.939058734136	2320.2103880234
0	5246	430314.364816155317	2096.9391290098
0	5255	431124.950406560707	2231.3968698028
0	5262	431800.794871011782	2024.2951840628
0	5271	432638.719518296453	2324.3547021411
0	5280	433283.674744376945	2158.7243378162
0	5289	433926.448052097145	1987.2835842893
0	5300	434950.57828081775	2260.9756103251
0	5309	435608.571636909652	2133.355774032
0	5316	436375.698570767451	2295.8676537964
0	5327	437195.07884178314	2244.5005609654
0	5332	437649.951850203831	2041.3802132942
0	5343	438410.512285027686	1951.3864647131
0	5354	439215.480295149644	2020.4014533665
0	5363	440077.163547277485	2084.6053616144
0	5368	440460.13181037273	1815.4369607102
0	5379	441679.588383436237	2464.1080882866
0	5386	442171.203912422095	2094.0403651446
0	5397	442978.50919850174	2136.9658935349
0	5406	443721.800201386247	2025.9093560278
0	5413	444244.741984549944	1875.6357515696
0	5422	445072.487723082339	2044.5303461049
0	5431	445653.663567686489	1829.0403221268
0	5444	446989.105259813404	2459.6150942612
0	5453	447621.170150907746	2316.1672560498
0	5458	448092.612254619634	1897.1692546271
0	5469	448961.894710874221	1972.7894510608
0	5478	449894.839913165233	2273.6697622575
0	5489	450789.46007005874	2512.648343062
0	5494	451327.891870541535	2214.3529186025
0	5507	452316.405270807481	2330.2573767956
0	5514	452751.423428300804	1961.9633582421
0	5523	453804.731484688854	2248.4269062057
0	5530	454558.065250469407	2241.6599796619
0	5539	455282.918117288536	2104.2559867725
0	5548	455851.384353591164	1778.5552594811
0	5557	456769.252599310165	1925.849378854
0	5568	457628.538526129013	2239.384428598
0	5575	458163.702013017645	1923.4625165351
0	5586	459293.052159156686	2209.8126753699
0	5597	459995.593641512132	2116.80542822
0	5606	460757.352063758335	2005.2603523247
0	5613	461312.688371585718	1999.1698802914
0	5620	462241.073828469998	2245.4801869579
0	5629	462577.345048449971	1819.9929846916
0	5638	463260.301887709684	1739.2962342594
0	5647	464017.479391163252	1638.8745547738
0	5656	464583.629720611534	1727.3713822011
0	5667	465510.570436762683	1970.1743775979
0	5678	466655.427475087382	2263.2531569805
0	5685	467137.698087003119	2121.5212519281
0	5696	467831.382433092259	1920.943629602
0	5703	468353.852526331358	1698.425051244
0	5710	469198.493361286857	2015.6920760404
0	5721	470110.221643606238	2278.839210514
0	5728	470717.486806819253	2068.720791908
0	5737	471328.635928826443	1805.9738072567
0	5746	471919.221797073297	1615.8785449807
0	5755	472575.389627320729	1575.7684239652
0	5768	473952.744145877696	2567.7000863012
0	5777	474788.242798810861	2566.3089171052
0	5784	475312.417290452904	2248.8259433303
0	5793	476069.955680519379	2117.2115346417
0	5804	476852.531962143294	2064.2891633324
0	5811	477535.130636952854	2018.796793744
0	5818	477964.608522411472	1856.6744479816
0	5827	478746.264766110145	1893.7328039669
0	5838	479787.343244534023	2153.0796600971
0	5847	480523.148068226911	2094.6368036326
0	5856	480944.229969056361	1699.6517546475
0	5859	481362.071137223431	1535.642930679
0	5872	482859.77946105417	2254.12612902
0	5883	483682.030289294236	2236.4579154644
0	5892	484309.649250330442	2044.7797703091
0	5899	485493.217613082418	2459.1056572739
0	5908	485885.601117974186	2083.1119942479
0	5917	486801.235733460674	2161.9244556874
0	5926	487236.964118946382	1699.2228029296
0	5939	488329.92554618981	2024.6329740621
0	5946	488840.263385279144	1901.2816652656
0	5953	489544.900033716153	1935.9882271383
0	5958	489950.58317296211	1620.6576267723
0	5973	491152.912210067775	1941.4193278179
0	5982	492227.972790459212	2270.8731588442
0	5991	492954.195657698479	2288.5105458554
0	5998	493264.064910868224	1867.808433529
0	6007	493677.465281635564	1400.5031827837
0	6016	494853.091212222394	1897.6363273803
0	6029	495792.545246193227	2364.801713638
0	6036	496332.344652107027	2008.2942035515
0	6043	496707.993776723784	1591.6909187101
0	6056	498265.318683162373	2472.7734369691
0	6061	498697.615439258557	2020.5269949976
0	6072	499428.917440306437	2036.6117009427
0	6083	500650.315039744642	2384.9963565823
0	6090	501025.799941504416	1985.982281249
0	6097	501847.747104847845	1976.3876827899
0	6106	502592.679325304967	1942.3642855603
0	6115	502956.110381986987	1536.177361384
0	6126	504123.874064628077	1871.3890195359
0	6133	504790.659206081224	1956.4523771871
0	6142	505518.448677426246	2003.5436819773
0	6147	505907.958168117371	1522.9869618081
0	6162	507459.45231872615	2258.1216072198
0	6173	508344.939050450964	2322.5871737581
0	6182	509233.895634859843	2419.300558744
0	6191	509895.082498155577	2370.0387672521
0	6200	510703.842629212929	2358.903578762
0	6209	511546.720936568497	2312.8253017087
0	6214	511949.934048950715	2054.8515507951
0	6227	512891.341653093739	2187.4990238808
0	6232	513246.016404032751	1699.2954674643
0	6243	514014.980137115388	1619.3457147572
0	6252	514768.788000661923	1877.4463475682
0	6259	515404.612969374328	1803.6081329919
0	6268	515942.185871629088	1581.0829255264
0	6279	517036.617509694814	2115.6528243329
0	6290	517863.077953923537	2092.1530898195
0	6299	518579.49292478156	2218.3046122547
0	6308	519469.5079275873	2234.141591331
0	6313	519830.848297895908	1967.7703439724
0	6326	520879.332654923245	2299.8397301417
0	6333	521494.558897381693	2025.0509697944
0	6344	522379.821838438556	2310.4927771725
0	6351	522889.669655403167	2010.3370004799
0	6362	523809.197016293228	2067.2682523727
0	6369	524615.708985133142	2235.8871466946
0	6378	525159.599209763154	2030.0573444925
0	6385	525755.196227598981	1945.9992113058
0	6396	526742.898463038773	2055.2818978205
0	6405	527626.188647886784	2222.4982264917
0	6412	528050.804456183733	1891.3500524126
0	6425	529029.31045987648	2091.5350232273
0	6434	529890.222339984077	2148.7492776476
0	6439	530348.972966289195	1849.9606184196
0	6448	531296.315383957746	2267.0049240813
0	6457	531755.429903464439	1865.2075634804
0	6468	533011.880728416193	2276.0681214742
0	6477	533662.306264461997	2132.5066785794
0	6486	534506.752698775428	2129.601569334
0	6493	535269.76474500266	2175.1233100891
0	6506	536427.94402465229	2471.4931170456
0	6513	537078.761287545833	2370.2210642863
0	6524	538121.165667660582	2575.6202097517
0	6529	538620.050406642306	2192.10638199
0	6538	539390.75113898148	2104.8360283021
0	6551	540359.509110404227	2238.3434427436
0	6560	541183.789436146665	2434.9123375956
0	6567	541843.213079497266	2280.7310841512
0	6574	542406.962518114645	2047.4534077104
0	6587	543689.774880465169	2505.9854443185
0	6596	544317.136890208398	2411.321455054
0	6601	544640.142456069638	1845.2585448045
0	6606	545017.560793831994	1327.7859133668
0	6621	546046.814250899528	1729.6773606911
0	6632	546699.008920043756	1497.5449296646
0	6637	547005.666517512922	1303.8449814543
0	6646	547507.595942169477	1213.8102633879
0	6655	548137.218531360899	1438.2096113171
0	6664	549062.589644780432	1906.7164773121
0	6673	549502.936124196326	1688.7894303538
0	6682	550254.688817029869	1566.6693956126
0	6695	551495.575299533134	2414.8514059838
0	6700	551865.670374641245	1988.22401301
0	6709	552509.451297763785	1867.9518139455
0	6718	553137.987699732234	1642.4124001991
0	6727	553785.869908332876	1561.5120747127
0	6738	555217.008137237331	2219.7398738936
0	6747	555752.045849897018	1987.597524561
0	6754	556410.152751300535	1945.5385683104
0	6763	557197.550317738256	1899.3614132982
0	6772	557896.685859281621	1870.6060932018
0	6783	559052.608476765505	2144.3045434076
0	6792	559676.337177353031	2118.5760745313
0	6799	560103.702663956261	1754.3593830429
0	6812	560899.207899905792	1695.6084592268
0	6821	561332.402872899598	1506.701043807
0	6828	561860.431517427838	1561.7127879057
0	6835	562368.12687618663	1468.9189762808
0	6846	563405.442246794751	2073.0393738952
0	6853	564041.680546570621	1872.6146683563
0	6864	565023.973682429693	2136.68403388
0	6873	565836.343181692115	2365.4271582607
0	6884	566516.907561756722	2160.3468690533
0	6889	567035.50942791631	1839.0749706421
0	6902	568053.060500230691	2087.7713151276
0	6907	568530.709244264341	2013.8016825076
0	6916	569178.585201501898	1886.428997945
0	6925	569927.072816854394	1874.0123166237
0	6934	571162.263907073116	2265.9901530482
0	6945	572047.49955944722	2280.9311149176
0	6956	572895.685756998187	2436.9634950534
0	6965	573762.49382137326	2430.3249808028
0	6970	574076.565400091982	1861.590386834
0	6983	575104.540398018486	2208.8546410203
0	6988	575476.641364535368	1714.1475431621
0	7001	576774.502210132829	2245.9063287824
0	7006	577151.936801103926	2047.3964030854
0	7017	577918.569418788008	2024.5215612464
0	7024	578475.986802019231	1701.4845918864
0	7035	579381.072271289355	1907.9512966331
0	7042	579963.999020727403	1850.5670298357
0	7051	580487.121424824051	1589.1402084846
0	7062	581828.579695383138	2288.5523694567
0	7069	582365.194463683344	1936.0997025389
0	7082	583633.921264205179	2518.7885410152
0	7087	583941.387243289552	1965.2472627349
0	7098	585146.829507686249	2341.6334111709
0	7107	585878.146399604208	2244.225135399
0	7116	586572.873588278941	2267.8081569728
0	7125	587261.029235785878	2065.0686868932
0	7132	587700.287356507085	1820.064717019
0	7145	589005.163185484759	2280.0330072641
0	7154	589900.664132181607	2540.4037720989
0	7159	590325.079683959536	2123.6610698048
0	7168	591003.171671507932	1998.0084860232
0	7177	591316.048793681019	1415.3846614994
0	7188	592445.905846590229	1765.7676917966
0	7195	593014.281943207659	1766.0554391798
0	7204	593881.248782761448	1935.1083230227
0	7213	594620.827027084358	1954.9168421421
0	7226	595824.955822806858	2441.4871326182
0	7235	596318.378975987487	2174.3626005482
0	7244	597214.087916817569	2263.7592027895
0	7249	597607.977309403994	1783.0214865971
0	7260	598359.717157250323	2041.3381812628
0	7267	598901.791817927786	1687.7039011102
0	7276	599714.231170993352	1935.6948197354
0	7287	600569.306798698434	2011.8868716527
0	7296	601307.045669294947	1913.9750034548
0	7305	601846.406243462169	1806.5045260359
0	7312	602610.766433039734	1915.6727277674
0	7321	603548.058718582669	2196.4541721158
0	7332	604513.864027010331	2369.8250473011
1	3136	260203.390188608332	347
1	3147	261444.598210137351	348
1	3154	262066.682078875615	349
1	3163	263015.862991847112	350
1	3176	263891.593722766279	351
1	3185	264542.817626986666	352
1	3190	264978.741418384029	353
1	3199	265516.387743316604	354
1	3210	266501.098294509588	355
1	3217	266876.754855969934	356
1	3230	268087.543191388263	357
1	3235	268646.358453109874	358
1	3244	269445.357799390345	359
1	3253	270190.458137216059	360
1	3262	270715.729395998656	361
1	3271	271803.94091131167	362
1	3282	272828.050600318252	363
1	3289	273286.144523788257	364
1	3298	274315.341471042498	365
1	3309	275117.992749670534	366
1	3316	276020.062153833002	367
1	3325	276540.386037016302	368
1	3334	277337.81107566321	369
1	3343	278132.195147965119	370
1	3352	278492.577586323038	371
1	3361	279006.349537521616	372
1	3372	280178.696629777566	373
1	3383	280955.698790727199	374
1	3388	281317.720175022275	375
1	3397	282058.259690227003	376
1	3406	282749.813340604321	377
1	3415	283319.077838910759	378
1	3426	284351.773787895234	379
1	3433	284881.835416937263	380
1	3442	285949.310059100406	381
1	3453	286975.844547338799	382
1	3462	287657.571114040926	383
1	3471	288560.241499543206	384
1	3482	289389.033289114029	385
1	3487	290122.80811630191	386
1	3500	290988.791200658322	387
1	3507	291718.166060512901	388
1	3516	292459.980686008946	389
1	3523	292934.135841066034	390
1	3534	294144.738381123186	391
1	3541	294594.284401880593	392
1	3554	295661.908189114199	393
1	3561	296121.414053393544	394
1	3570	296859.121346706541	395
1	3577	297397.727110795693	396
1	3586	297909.157718438672	397
1	3599	298619.959493866207	398
1	3606	299395.562258362787	399
1	3613	299853.676589811238	400
1	3624	300711.758506391214	401
1	3635	301571.180126024427	402
1	3640	301880.011289846169	403
1	3649	302666.281759645807	404
1	3658	303665.912861516716	405
1	3669	304672.718257131072	406
1	3676	305023.080547945591	407
1	3685	305730.789926089363	408
1	3696	306588.45451539384	409
1	3703	307135.691989772038	410
1	3712	307981.804834585654	411
1	3721	309169.437138363737	412
1	3734	310193.701574625466	413
1	3741	310572.410534787942	414
1	3752	311363.827309291829	415
1	3757	311749.866214720552	416
1	3766	312363.992469292153	417
1	3777	313455.490616709014	418
1	3784	313883.730270853286	419
1	3797	314929.489770904204	420
1	3804	315669.756372598952	421
1	3815	316492.067551938838	422
1	3820	316877.557335840559	423
1	3829	317638.653541635743	424
1	3838	318143.061718577541	425
1	3849	319003.025015490151	426
1	3856	319864.471073169283	427
1	3867	320837.522350531093	428
1	3874	321289.730975450969	429
1	3883	322410.99216216246	430
1	3896	323259.283675113715	431
1	3905	323892.186838109068	432
1	3912	324705.522587662585	433
1	3921	325473.23481529022	434
1	3932	326112.794935656734	435
1	3937	326507.101889653154	436
1	3946	326969.18515088039	437
1	3955	327818.616596376546	438
1	3964	328318.839095905446	439
1	3973	329518.434466654457	440
1	3982	329919.719735858985	441
1	3995	330573.205184424318	442
1	4004	331216.104295989521	443
1	4013	331893.69149040433	444
1	4020	332685.374977067135	445
1	4031	333608.700329437874	446
1	4036	334108.042783336736	447
1	4047	334766.930068843089	448
1	4056	335414.311792049579	449
1	4063	336132.427965570263	450
1	4074	336688.119354005925	451
1	4081	337031.421817420072	452
1	4090	337821.788716362811	453
1	4101	339002.209942555077	454
1	4112	339888.166153477527	455
1	4119	340501.917106378846	456
1	4126	341072.354869544528	457
1	4137	341979.522918630414	458
1	4144	342285.649343160935	459
1	4153	343166.618451196723	460
1	4166	344364.084104821109	461
1	4171	344743.225895846286	462
1	4182	345850.010736426362	463
1	4193	346748.5074546654	464
1	4200	347251.73687017525	465
1	4211	348123.961571976565	466
1	4216	348516.492124227829	467
1	4227	349249.046571180247	468
1	4238	350037.407620204635	469
1	4247	350739.156274404399	470
1	4254	351269.004901126049	471
1	4261	351633.72049550528	472
1	4272	352629.240783210866	473
1	4281	353509.845333918951	474
1	4292	354131.558788055576	475
1	4297	354655.263391463108	476
1	4306	355084.848705818898	477
1	4315	356213.824880914784	478
1	4324	356688.068169867642	479
1	4337	357529.654876375593	480
1	4342	358149.139656079955	481
1	4353	358791.676002508052	482
1	4360	359531.698475964389	483
1	4369	360278.748657368145	484
1	4380	360769.451858662091	485
1	4387	361566.641560429729	486
1	4396	362177.723634475864	487
1	4405	362961.858571646758	488
1	4414	363905.236409325176	489
1	4423	364400.321439793357	490
1	4432	365656.535161240049	491
1	4441	366315.781586570688	492
1	4450	367109.212451241934	493
1	4461	367793.685626518004	494
1	4472	368661.430951673561	495
1	4479	369370.176094444492	496
1	4486	369835.827934741998	497
1	4499	370991.816110024253	498
1	4504	371334.25492937679	499
1	4517	372143.046968663136	500
1	4524	372677.800602000231	501
1	4535	373492.426188988636	502
1	4542	373887.137842923428	503
1	4551	374695.060721319194	504
1	4562	375576.571206981341	505
1	4567	376006.152744730959	506
1	4578	376819.488721154655	507
1	4585	377522.706803446661	508
1	4596	378349.906535586368	509
1	4603	379036.050905194159	510
1	4612	379539.524481073047	511
1	4623	380234.188909409593	512
1	4634	381065.273159695815	513
1	4643	381894.535105163257	514
1	4648	382277.823358308549	515
1	4661	383267.373570380759	516
1	4670	383826.336126448613	517
1	4675	384342.904704529819	518
1	4688	385320.997424935948	519
1	4695	386051.275188569006	520
1	4704	386626.209173072156	521
1	4711	387483.424430899348	522
1	4724	388386.014277767416	523
1	4729	388746.733529912334	524
1	4742	389560.944648273315	525
1	4749	390329.514851979937	526
1	4758	390852.017498435478	527
1	4765	391275.392575236063	528
1	4776	392416.295867599573	529
1	4785	393174.53193152326	530
1	4796	394035.602087248143	531
1	4803	394681.907609710496	532
1	4812	395175.636942219015	533
1	4823	396036.868640827041	534
1	4832	396883.403436234247	535
1	4839	397489.72302395853	536
1	4846	398248.401898657929	537
1	4857	398875.524090277057	538
1	4864	399214.084967924309	539
1	4873	400109.609948471216	540
1	4882	400653.831567848129	541
1	4895	401689.802651898963	542
1	4904	402585.863212868599	543
1	4909	403366.862114612041	544
1	4922	404180.75144444595	545
1	4927	404741.628305660588	546
1	4936	405358.890118589652	547
1	4949	406448.797068698358	548
1	4954	406984.283548453849	549
1	4963	407818.4235562105	550
1	4974	408754.634103644666	551
1	4983	409258.718720823553	552
1	4992	409926.951818726984	553
1	5001	410510.316848941175	554
1	5012	411313.458592817215	555
1	5019	412091.484275087742	556
1	5030	413017.90016563612	557
1	5037	413757.501715840799	558
1	5046	414553.456142172245	559
1	5057	415376.685354625834	560
1	5062	415716.035220399527	561
1	5071	416313.981685973732	562
1	5080	417041.080363327666	563
1	5089	417489.740563463449	564
1	5098	418194.243089156254	565
1	5107	418710.001878021314	566
1	5116	419663.429116504296	567
1	5127	420506.518206791982	568
1	5136	420996.158146485717	569
1	5143	421605.046662222624	570
1	5152	422411.892198678136	571
1	5163	423251.368767768175	572
1	5174	424127.425096510009	573
1	5183	424888.582596369119	574
1	5190	425530.163971753822	575
1	5197	426101.530017703803	576
1	5210	427368.72867071073	577
1	5217	428193.567516608196	578
1	5224	428588.008645456317	579
1	5235	429688.939058734136	580
1	5246	430314.364816155317	581
1	5255	431124.950406560707	582
1	5262	431800.794871011782	583
1	5271	432638.719518296453	584
1	5280	433283.674744376945	585
1	5289	433926.448052097145	586
1	5300	434950.57828081775	587
1	5309	435608.571636909652	588
1	5316	436375.698570767451	589
1	5327	437195.07884178314	590
1	5332	437649.951850203831	591
1	5343	438410.512285027686	592
1	5354	439215.480295149644	593
1	5363	440077.163547277485	594
1	5368	440460.13181037273	595
1	5379	441679.588383436237	596
1	5386	442171.203912422095	597
1	5397	442978.50919850174	598
1	5406	443721.800201386247	599
1	5413	444244.741984549944	600
1	5422	445072.487723082339	601
1	5431	445653.663567686489	602
1	5444	446989.105259813404	603
1	5453	447621.170150907746	604
1	5458	448092.612254619634	605
1	5469	448961.894710874221	606
1	5478	449894.839913165233	607
1	5489	450789.46007005874	608
1	5494	451327.891870541535	609
1	5507	452316.405270807481	610
1	5514	452751.423428300804	611
1	5523	453804.731484688854	612
1	5530	454558.065250469407	613
1	5539	455282.918117288536	614
1	5548	455851.384353591164	615
1	5557	456769.252599310165	616
1	5568	457628.538526129013	617
1	5575	458163.702013017645	618
1	5586	459293.052159156686	619
1	5597	459995.593641512132	620
1	5606	460757.352063758335	621
1	5613	461312.688371585718	622
1	5620	462241.073828469998	623
1	5629	462577.345048449971	624
1	5638	463260.301887709684	625
1	5647	464017.479391163252	626
1	5656	464583.629720611534	627
1	5667	465510.570436762683	628
1	5678	466655.427475087382	629
1	5685	467137.698087003119	630
1	5696	467831.382433092259	631
1	5703	468353.852526331358	632
1	5710	469198.493361286857	633
1	5721	470110.221643606238	634
1	5728	470717.486806819253	635
1	5737	471328.635928826443	636
1	5746	471919.221797073297	637
1	5755	472575.389627320729	638
1	5768	473952.744145877696	639
1	5777	474788.242798810861	640
1	5784	475312.417290452904	641
1	5793	476069.955680519379	642
1	5804	476852.531962143294	643
1	5811	477535.130636952854	644
1	5818	477964.608522411472	645
1	5827	478746.264766110145	646
1	5838	479787.343244534023	647
1	5847	480523.148068226911	648
1	5856	480944.229969056361	649
1	5859	481362.071137223431	650
1	5872	482859.77946105417	651
1	5883	483682.030289294236	652
1	5892	484309.649250330442	653
1	5899	485493.217613082418	654
1	5908	485885.601117974186	655
1	5917	486801.235733460674	656
1	5926	487236.964118946382	657
1	5939	488329.92554618981	658
1	5946	488840.263385279144	659
1	5953	489544.900033716153	660
1	5958	489950.58317296211	661
1	5973	491152.912210067775	662
1	5982	492227.972790459212	663
1	5991	492954.195657698479	664
1	5998	493264.064910868224	665
1	6007	493677.465281635564	666
1	6016	494853.091212222394	667
1	6029	495792.545246193227	668
1	6036	496332.344652107027	669
1	6043	496707.993776723784	670
1	6056	498265.318683162373	671
1	6061	498697.615439258557	672
1	6072	499428.917440306437	673
1	6083	500650.315039744642	674
1	6090	501025.799941504416	675
1	6097	501847.747104847845	676
1	6106	502592.679325304967	677
1	6115	502956.110381986987	678
1	6126	504123.874064628077	679
1	6133	504790.659206081224	680
1	6142	505518.448677426246	681
1	6147	505907.958168117371	682
1	6162	507459.45231872615	683
1	6173	508344.939050450964	684
1	6182	509233.895634859843	685
1	6191	509895.082498155577	686
1	6200	510703.842629212929	687
1	6209	511546.720936568497	688
1	6214	511949.934048950715	689
1	6227	512891.341653093739	690
1	6232	513246.016404032751	691
1	6243	514014.980137115388	692
1	6252	514768.788000661923	693
1	6259	515404.612969374328	694
1	6268	515942.185871629088	695
1	6279	517036.617509694814	696
1	6290	517863.077953923537	697
1	6299	518579.49292478156	698
1	6308	519469.5079275873	699
1	6313	519830.848297895908	700
1	6326	520879.332654923245	701
1	6333	521494.558897381693	702
1	6344	522379.821838438556	703
1	6351	522889.669655403167	704
1	6362	523809.197016293228	705
1	6369	524615.708985133142	706
1	6378	525159.599209763154	707
1	6385	525755.196227598981	708
1	6396	526742.898463038773	709
1	6405	527626.188647886784	710
1	6412	528050.804456183733	711
1	6425	529029.31045987648	712
1	6434	529890.222339984077	713
1	6439	530348.972966289195	714
1	6448	531296.315383957746	715
1	6457	531755.429903464439	716
1	6468	533011.880728416193	717
1	6477	533662.306264461997	718
1	6486	534506.752698775428	719
1	6493	535269.76474500266	720
1	6506	536427.94402465229	721
1	6513	537078.761287545833	722
1	6524	538121.165667660582	723
1	6529	538620.050406642306	724
1	6538	539390.75113898148	725
1	6551	540359.509110404227	726
1	6560	541183.789436146665	727
1	6567	541843.213079497266	728
1	6574	542406.962518114645	729
1	6587	543689.774880465169	730
1	6596	544317.136890208398	731
1	6601	544640.142456069638	732
1	6606	545017.560793831994	733
1	6621	546046.814250899528	734
1	6632	546699.008920043756	735
1	6637	547005.666517512922	736
1	6646	547507.595942169477	737
1	6655	548137.218531360899	738
1	6664	549062.589644780432	739
1	6673	549502.936124196326	740
1	6682	550254.688817029869	741
1	6695	551495.575299533134	742
1	6700	551865.670374641245	743
1	6709	552509.451297763785	744
1	6718	553137.987699732234	745
1	6727	553785.869908332876	746
1	6738	555217.008137237331	747
1	6747	555752.045849897018	748
1	6754	556410.152751300535	749
1	6763	557197.550317738256	750
1	6772	557896.685859281621	751
1	6783	559052.608476765505	752
1	6792	559676.337177353031	753
1	6799	560103.702663956261	754
1	6812	560899.207899905792	755
1	6821	561332.402872899598	756
1	6828	561860.431517427838	757
1	6835	562368.12687618663	758
1	6846	563405.442246794751	759
1	6853	564041.680546570621	760
1	6864	565023.973682429693	761
1	6873	565836.343181692115	762
1	6884	566516.907561756722	763
1	6889	567035.50942791631	764
1	6902	568053.060500230691	765
1	6907	568530.709244264341	766
1	6916	569178.585201501898	767
1	6925	569927.072816854394	768
1	6934	571162.263907073116	769
1	6945	572047.49955944722	770
1	6956	572895.685756998187	771
1	6965	573762.49382137326	772
1	6970	574076.565400091982	773
1	6983	575104.540398018486	774
1	6988	575476.641364535368	775
1	7001	576774.502210132829	776
1	7006	577151.936801103926	777
1	7017	577918.569418788008	778
1	7024	578475.986802019231	779
1	7035	579381.072271289355	780
1	7042	579963.999020727403	781
1	7051	580487.121424824051	782
1	7062	581828.579695383138	783
1	7069	582365.194463683344	784
1	7082	583633.921264205179	785
1	7087	583941.387243289552	786
1	7098	585146.829507686249	787
1	7107	585878.146399604208	788
1	7116	586572.873588278941	789
1	7125	587261.029235785878	790
1	7132	587700.287356507085	791
1	7145	589005.163185484759	792
1	7154	589900.664132181607	793
1	7159	590325.079683959536	794
1	7168	591003.171671507932	795
1	7177	591316.048793681019	796
1	7188	592445.905846590229	797
1	7195	593014.281943207659	798
1	7204	593881.248782761448	799
1	7213	594620.827027084358	800
1	7226	595824.955822806858	801
1	7235	596318.378975987487	802
1	7244	597214.087916817569	803
1	7249	597607.977309403994	804
1	7260	598359.717157250323	805
1	7267	598901.791817927786	806
1	7276	599714.231170993352	807
1	7287	600569.306798698434	808
1	7296	601307.045669294947	809
1	7305	601846.406243462169	810
1	7312	602610.766433039734	811
1	7321	603548.058718582669	812
1	7332	604513.864027010331	813

