version 2
run Pipelined_3Teachers-28-20190105-10:57:24-27372
attr configname Pipelined_3Teachers
attr datetime 20190105-10:57:24
attr experiment Pipelined_3Teachers
attr inifile ../simulations/omnetpp.ini
attr iterationvars "$0=\"uniform\""
attr iterationvarsf uniform-
attr measurement "$0=\"uniform\""
attr network PipelinedExamSession
attr processid 27372
attr repetition 28
attr replication #28
attr resultdir results
attr runnumber 28
attr seedset 28
param **.teachersNumber 3
param **.answerTimeDistribution "\"uniform\""
param **.minUniform 300
param **.maxUniform 900
param **.scaleLognormal 6.2854
param **.shapeLognormal 0.4724

vector 0 PipelinedExamSession examinationTime:vector ETV
attr source examFinished
vector 1 PipelinedExamSession studentID:vector ETV
attr source student
0	3156	260168.304131459456	1880.6889204774
0	3165	260954.650659486663	1985.0608255249
0	3176	261438.358617341157	1800.4696250428
0	3185	262029.150430345919	1806.8738597911
0	3194	262905.932889087137	1891.3655648008
0	3203	263769.340202165779	2330.9815848246
0	3208	264252.557548787456	2223.4071184415
0	3219	265003.284094808635	2097.3512057215
0	3228	265704.075263114658	1934.7350609489
0	3235	266402.261352399376	1888.8942159712
0	3246	267311.960620014008	2208.0133942422
0	3257	268280.647497670737	2350.9904611856
0	3262	268807.495396630851	2099.5791682508
0	3271	269421.251537092042	1924.52435866
0	3280	270032.400648761553	1751.7531510908
0	3289	270811.218559881684	1858.9397868142
0	3298	271364.870073599753	1894.8364851996
0	3309	272510.955150285749	2185.3771721944
0	3318	273387.94807288797	2484.5091724768
0	3329	274084.95299429634	2343.8026155811
0	3334	274586.8280646857	1963.4627950843
0	3347	275476.191789703457	1975.7520021871
0	3354	276135.989966942011	2051.0369726457
0	3363	276906.547790346681	1934.7010301426
0	3372	277725.796061893939	2249.6042721905
0	3379	278148.325245408355	2010.3371097241
0	3390	279100.099597312525	2105.0962289795
0	3397	280020.967057999238	2151.6845878679
0	3406	280467.39824074322	1946.9460379332
0	3415	281665.477401483818	2282.8574598301
0	3424	282393.18314599806	2143.9894446172
0	3433	283416.713782399908	2287.3503953218
0	3444	284266.135369241252	2247.555039078
0	3451	284825.985653232797	1917.2017683741
0	3460	285741.660690726727	2002.7306907345
0	3473	286991.534765018165	2481.0361313168
0	3478	287320.392243890107	1915.5944895465
0	3487	287820.609403308495	1569.3990315311
0	3500	289087.724535260364	2096.1897702422
0	3509	289967.592462804183	2162.6394619234
0	3518	290863.690466154381	2305.8243880514
0	3525	291537.680790200844	2449.9562549405
0	3534	292305.716874729856	2338.1244119257
0	3541	292767.116448422908	1903.4259822685
0	3552	293914.869648451	2242.936333688
0	3559	294564.676160831019	2035.3126674425
0	3570	295167.839489970371	2013.8257185929
0	3577	295507.631077989951	1570.3057260253
0	3590	296630.291850306109	1896.5690618847
0	3595	297209.46895605886	1773.4731095843
0	3604	297808.066027890906	1984.8609598819
0	3613	298329.710223013551	1699.4183727074
0	3624	299041.017363779263	1587.1456929948
0	3633	299792.814250197278	1735.9297671821
0	3640	300320.117569528537	1898.2781657483
0	3653	301157.850308530049	2092.310918821
0	3660	301525.809210771711	1625.1828922424
0	3669	302168.874955549852	1460.9140760265
0	3678	303033.364215865747	1875.5139073357
0	3687	303887.04749490136	2240.1923832949
0	3698	304777.094244025663	2506.4538436476
0	3703	305159.519628714785	2080.8614609297
0	3714	305565.83510851489	1621.2723020464
0	3721	306102.414522366613	1325.3202783409
0	3730	307408.034718967989	2174.5753278024
0	3739	307810.82804803738	1743.0535709951
0	3748	308469.871738739326	1743.2865765877
0	3757	309410.285570332796	1909.8190718796
0	3766	310321.60840532744	2074.0002112929
0	3775	311061.113868188129	2079.3897335418
0	3786	312044.579777307825	2225.0278925523
0	3793	312622.367942053841	1943.2715585455
0	3806	313989.88964972088	2553.955262946
0	3811	314301.792631857115	2065.6872017775
0	3820	315302.676002215612	2180.17218397
0	3831	315961.558388499561	1971.6687387787
0	3838	316621.919311070833	1923.0600338895
0	3847	317005.478765722382	1418.0191088933
0	3860	317843.111873092147	1523.2386040036
0	3865	318309.955001296493	1507.7455075923
0	3876	318934.007952036353	1686.3068665378
0	3887	319831.327956961485	1988.2160838693
0	3892	320383.194682979973	1969.9480034877
0	3901	321098.946578800696	2143.155940203
0	3910	321858.657873049396	2027.3299160879
0	3923	322818.344095023367	2146.8474660069
0	3928	323194.098404003325	1722.147834627
0	3939	324256.768327625486	2176.9905347843
0	3946	324971.06432681905	2152.7202317957
0	3959	326051.427043508757	2381.4166413154
0	3966	326802.022768836487	2237.76503345
0	3975	327578.811981249619	2153.155668173
0	3984	328246.309699723515	2194.8826562148
0	3995	329201.045239856485	2295.2908940613
0	4000	329737.205357942749	1934.3094316777
0	4009	330273.348710266892	1863.4437718894
0	4020	331345.678079221416	2144.6328393649
0	4027	331877.27623740213	1815.7774143387
0	4038	332690.583174023796	1857.3771972209
0	4049	333762.880848767254	2321.8060788698
0	4054	334092.063432466257	1844.2726404872
0	4063	334715.500288456697	1708.6563223042
0	4076	335789.495978783835	2026.6151300166
0	4083	336442.838848102857	2192.3106899019
0	4094	337446.582809183765	2420.1138050761
0	4101	337903.815911617148	2114.3199328333
0	4110	338719.593910966087	2108.4084655624
0	4121	339515.561269596238	2068.9784604125
0	4128	340125.85027841853	2160.7966129202
0	4135	340542.494338564594	1734.8933533765
0	4144	341530.653171474133	2015.0919018779
0	4155	342556.47426531652	2156.8227109965
0	4164	343044.087804062311	1960.4576930869
0	4171	343839.10971879961	1920.8047041669
0	4182	344490.240651648511	1791.3983064238
0	4193	345580.750485509653	2143.2671927847
0	4202	346419.320858968441	2320.5866969191
0	4207	346969.449423858915	2222.635722952
0	4216	347418.761225044747	1838.0107395351
0	4227	348304.30103028195	1884.9801713135
0	4234	349009.306251257677	1948.6833506729
0	4245	349579.253397602606	1762.0698347222
0	4252	350413.52516482586	1766.2622404285
0	4263	351379.830849124137	2263.1971059367
0	4274	352228.40482383037	2324.4529556483
0	4279	352762.471457524244	2017.282387102
0	4290	353770.854973560219	2294.5841765497
0	4297	354170.810841908698	1942.4060180783
0	4306	354782.669614255448	1716.5540277958
0	4319	355982.137668924426	2114.2078262754
0	4326	356546.483772899975	2091.2359567825
0	4335	357343.220279971157	2095.1700337697
0	4342	357745.482967514564	1763.3452985901
0	4351	358516.189619433155	1890.4898885172
0	4362	359411.025922838619	1977.488809498
0	4369	360003.662346443181	1822.5237313192
0	4380	360851.610077731331	2038.8722411357
0	4387	361183.843989064937	1518.4854048304
0	4396	361803.258431889136	1447.2130632028
0	4407	363266.46822975019	2407.439107541
0	4414	363643.589841714148	1896.7146309558
0	4427	364620.832527196054	2142.2028298024
0	4436	365428.786303102989	2121.7939554714
0	4441	365885.233465489019	2031.2262307852
0	4450	366645.062368316595	2024.2298411205
0	4461	367690.645918808896	2261.8596157059
0	4468	368065.449842903782	1894.3342037033
0	4481	368931.642452906836	1902.8561269864
0	4490	369414.071036735568	1717.0999537222
0	4499	370213.094249647129	1914.2993639689
0	4506	371066.527497628722	2134.8850447219
0	4517	371757.890291372333	2343.8192546368
0	4522	372168.134170956929	1955.0399213098
0	4535	372902.316184574757	1798.5804580618
0	4542	373285.871402733047	1527.9811113607
0	4553	374581.988244038095	2283.2984954584
0	4560	375280.66708794797	2378.3509033732
0	4569	376164.171940460821	2446.9496599864
0	4580	376954.326702235287	2372.3384581972
0	4585	377604.358816612532	2217.6608901937
0	4594	377994.468087377048	1727.6702209376
0	4603	378814.822378428673	1860.4956761934
0	4612	379544.22032693403	1847.8226867504
0	4623	380813.791465340202	2326.5183268581
0	4632	381696.049714554121	2358.0247839913
0	4643	382584.94599130938	2610.645486787
0	4648	382904.715907014927	2055.4326802958
0	4657	383454.428568016758	1749.9061573762
0	4670	384939.232537988594	2354.2865466792
0	4675	385391.769837029299	1966.8763472233
0	4684	386168.805230688325	1937.9601799417
0	4697	387238.42550427655	2299.192966288
0	4704	387723.771024495384	1911.3364853896
0	4711	388477.119642030469	2105.4484287277
0	4724	389892.411300307161	2653.9857960306
0	4729	390358.476265054217	2228.1106734183
0	4740	391223.090832307956	2219.8908657767
0	4751	392251.18739954198	2358.7760992348
0	4760	392770.426812814569	2050.4966899753
0	4765	393274.543848959749	1804.2261446826
0	4778	394186.528247594854	1935.3408480529
0	4783	394749.672286212465	1979.2454733979
0	4794	395349.84162747862	1778.0238447245
0	4801	395904.333706526106	1717.8054589313
0	4810	396931.114999344592	1920.4188382253
0	4823	398050.42501478458	2438.2526970003
0	4830	398830.729607585838	2334.3716733623
0	4837	399217.656968766844	2053.9292619098
0	4850	400389.882338605841	2339.4573238213
0	4859	401273.633562773486	2353.7445345428
0	4864	401633.646921347847	1901.8541333266
0	4869	402049.355134600794	1659.472795995
0	4882	403040.315669914728	1766.6821071412
0	4891	404136.141848517602	1965.8575608395
0	4904	405101.114345574772	2122.7939610835
0	4911	405641.342757130062	2034.1252142563
0	4918	406280.089443549534	2060.6440328993
0	4927	407071.343485359123	1970.2291397844
0	4940	408234.574805712348	2374.7656730935
0	4947	408788.536095852053	2336.9982702658
0	4954	409229.884606786093	1887.7425103448
0	4963	410182.43422494272	1947.8594192304
0	4976	411203.827682230642	2162.6108374447
0	4985	411950.977641530355	2156.8186012097
0	4990	412685.169941699152	2004.3315551709
0	5001	413502.133202366551	2298.3055201359
0	5008	413830.828280188163	1879.8506386578
0	5019	414942.240041121861	2108.490913175
0	5026	415575.006641680395	1846.9099919312
0	5039	416276.629565516508	1823.8752686419
0	5046	416968.635219521842	1991.7237558402
0	5053	417570.776482298992	1953.9666165132
0	5066	418566.581788100324	2289.9522225838
0	5075	419371.248128637693	2294.6331718471
0	5084	420072.728346660755	2339.1795095522
0	5093	420807.989310007564	2241.4075219072
0	5098	421295.204161573223	1923.9560329355
0	5111	422489.357578614748	2416.629231954
0	5118	422795.770510425813	1987.7812004182
0	5125	423700.506362970939	2007.0135095157
0	5138	424989.944647299147	2500.5870686844
0	5143	425384.248957922703	2093.5760869179
0	5152	426355.672678817085	2255.9934699442
0	5163	427388.780482532478	2398.8358352333
0	5174	428095.700925076402	2248.1731854379
0	5181	428916.244277497775	2244.6857000235
0	5190	429545.065979333616	1981.6335823853
0	5197	430078.896517166889	1983.1955920905
0	5206	430663.198608951665	1692.6053241827
0	5217	431716.763069015018	2150.2169287764
0	5224	432368.990727094955	1908.4239393007
0	5233	433011.600345047212	1730.1765051205
0	5246	434125.606482708848	1976.3117279392
0	5253	434860.598500259242	2051.5810795594
0	5264	435424.05853662642	2039.2212371808
0	5273	435990.169752482346	1864.5632697735
0	5282	436831.101190717912	1883.6348170415
0	5291	437670.092259021497	2246.0337223951
0	5298	438416.881228052101	2426.7114755698
0	5307	439010.918627539671	2179.8174368218
0	5318	440056.077252002454	2385.984992981
0	5327	440878.925274498782	2349.4280057028
0	5336	441768.644720362521	2342.315176595
0	5345	442429.050920018948	2372.9736680165
0	5350	442818.639888754136	1939.7146142554
0	5363	443978.302931506209	2209.6582111437
0	5368	444420.832229917891	1991.7813098989
0	5381	445288.943779980786	2095.0566899031
0	5386	445707.885287376143	1729.5823558699
0	5395	446237.66768826174	1715.4263166245
0	5408	447530.283405818068	2241.3396258373
0	5415	448020.953461574413	2199.0643997211
0	5422	448333.786648605041	1639.4178675022
0	5431	449469.777198974066	1939.493793156
0	5444	450283.542834408605	2244.2022089381
0	5453	451099.556558439532	2235.5185789056
0	5458	451450.666121905694	1795.691448357
0	5467	452185.192935448164	1901.6501010396
0	5476	453078.808865742782	1979.2523073033
0	5485	453826.331295305887	2175.3203152679
0	5494	454390.786393219629	1843.0135195144
0	5507	455407.410772657046	2033.7482584175
0	5516	456285.514478618303	2084.8443916999
0	5525	456929.890141636157	2113.2796866819
0	5534	457645.659534260654	2238.2487616036
0	5543	458263.556211255514	1978.0417326372
0	5550	458714.520561927953	1784.6304202918
0	5561	459836.353702610382	2190.6941683497
0	5566	460138.926505716541	1875.370294461
0	5575	461084.048523288244	1990.7754925545
0	5586	461842.520794132747	2006.1670915224
0	5593	462276.06916422958	1752.8953080531
0	5602	463258.68830122056	1839.2312216107
0	5611	463943.357003666485	1945.7893851679
0	5624	465125.502127641836	2259.2154848389
0	5629	465464.096959261248	1871.538089728
0	5638	466021.298911934742	1693.4096673969
0	5647	467049.989583157027	1924.4874555152
0	5660	468089.4524230622	2163.6083238758
0	5669	468986.573931248883	2592.9559650365
0	5674	469485.118143400202	2227.9590115417
0	5683	470156.278916867474	2066.8264938053
0	5694	471208.203196479033	2221.6292652301
0	5701	471750.644781952749	2000.9929320775
0	5710	472264.594224002238	1724.9085790012
0	5723	473832.920006755765	2423.332413286
0	5730	474473.524842504438	2248.9078086801
0	5737	474891.102650994461	1846.1543294135
0	5748	476159.617226617436	2326.6972198617
0	5759	477049.121916946049	2385.1663273294
0	5768	477582.343624485682	2076.5187072102
0	5773	478100.303037045549	1849.0785396192
0	5784	479026.617612456928	1977.4956955109
0	5793	479873.057484766494	2290.7138602808
0	5802	480536.85058294798	2146.3338637725
0	5811	481315.829858975511	2252.280896483
0	5822	482292.542898282435	2396.2943779305
0	5827	482628.868294134762	1857.7918924391
0	5836	483036.78762959319	1630.9957609512
0	5845	484205.58681003752	1913.0439117551
0	5854	484531.91925482827	1543.1583114434
0	5863	485451.448527490746	1806.7228332628
0	5874	486544.608819996965	2032.3690570425
0	5881	486935.410542273921	1582.9155389685
0	5892	487711.106565920663	1680.1680168137
0	5901	488334.144584834603	1729.2710553389
0	5912	489519.908061856431	2465.004034806
0	5921	490300.689103687209	2440.2656033635
0	5926	490852.007797407013	2230.4110393859
0	5939	491821.921816002605	2302.0137541462
0	5948	492712.06397465433	2411.3748709671
0	5957	493360.608795052422	2299.1884660441
0	5962	493730.540944123668	1908.6191281211
0	5971	494566.338609438417	1854.2746347841
0	5984	495438.603348238421	2077.994553186
0	5991	496108.419699221877	2017.8173081484
0	5998	496728.841163869974	1972.7819914464
0	6007	497417.747494764654	1979.1441465262
0	6020	498658.169075427604	2426.746825967
0	6025	499320.539131248397	2263.1839671638
0	6036	500051.257344475043	2203.0189115088
0	6043	500854.528810875517	2196.3597354479
0	6054	501529.440996330259	2118.2744042482
0	6061	502124.731832323624	2060.5299336836
0	6074	503009.35276430103	2102.8957157861
0	6081	503733.035553758992	2033.2245997153
0	6088	504407.167223515017	1940.83138844
0	6099	505478.480596980108	2469.1278326791
0	6110	506303.89490984383	2397.7297314908
0	6117	507109.455467574326	2495.6577685196
0	6124	507467.381517123459	1965.0583652314
0	6133	508138.546669576345	1834.6517597325
0	6142	508789.608219545363	1587.1011649724
0	6155	509684.558173315628	2011.3371154759
0	6162	510302.331153117149	1949.1591128055
0	6173	510994.953635986923	1990.5992846936
0	6182	511862.607165472611	2178.048992157
0	6189	512218.464015657111	1793.5604636092
0	6198	513077.303711883753	2082.3500758968
0	6205	513788.433250738337	1925.8260852657
0	6214	514485.297968890548	1926.5849271789
0	6223	515503.579873451993	2286.1513815355
0	6234	516186.735332384736	2265.4557284899
0	6241	516556.527868146107	1742.2128103673
0	6254	518040.553896781088	2443.0896162987
0	6263	518888.121422845901	2561.4441405516
0	6270	519311.15164551887	2121.9123008195
0	6279	520290.429217787491	2249.8753210064
0	6290	521384.62288202721	2496.5014591813
0	6295	521716.993863601269	1942.2983293422
0	6304	522636.703911842809	2094.3085377105
0	6315	523451.932719117062	2067.3098370899
0	6322	523949.754184065418	1691.7808667757
0	6331	524730.092268576876	1756.6459205467
0	6340	525424.786128010632	1800.4891244229
0	6351	526205.652236379714	1880.4529422428
0	6358	526810.834561614351	1663.6970182881
0	6367	527640.132715646209	1941.3345120382
0	6376	528181.720011821048	1843.288403051
0	6385	528928.321831813114	1706.9597484078
0	6394	529531.059534195842	1654.6031913254
0	6405	530467.353626852886	1992.6750959828
0	6412	531223.862001998382	1943.4679892845
0	6423	531942.374034645067	1902.555009909
0	6430	532489.754440030114	1765.1996683795
0	6441	533286.583324475246	1778.0937443487
0	6450	533908.317823754656	1548.6154187936
0	6459	534900.078953756052	1962.1164127719
0	6466	535415.821255417574	1931.1601148453
0	6477	536353.18500590514	2047.6665335242
0	6488	537120.766872307319	2194.3225995172
0	6497	537847.268076147918	2209.7714861389
0	6506	538521.121850330417	2076.6717567109
0	6511	538825.806788401713	1705.0399160944
0	6524	539641.965305479278	1794.6972293314
0	6531	540258.600046578829	1737.4781962484
0	6540	540885.430738097092	1948.5242534894
0	6547	541730.785077950021	2088.8197724707
0	6560	542505.204447079485	2244.8532896116
0	6565	542908.23855400089	1840.4099178035
0	6574	543390.457023493981	1633.7786355056
0	6585	543890.785489277949	1385.5810421985
0	6592	544395.985373295879	1411.6688439623
0	6605	545674.84530746009	2147.4259307608
0	6614	546291.217774897849	2240.5762163457
0	6623	546950.245033018326	2060.139046004
0	6630	547365.445094229689	1690.5997867696
0	6639	548251.822717627546	1960.6049427297
0	6650	549133.815616322717	2183.5705833044
0	6659	550024.924951465836	2298.1691577472
0	6668	550828.05056548681	2491.3661541883
0	6673	551212.131631700358	2078.3160153776
0	6682	551902.925481693855	1878.000530228
0	6693	553063.320999126918	2235.2704336401
0	6702	553765.457530645691	2302.5170083623
0	6711	554390.353610878848	2070.4326889012
0	6720	555178.193140123077	2110.4308802169
0	6727	555518.674912210591	1646.3503824547
0	6736	556403.520967438855	1925.6322680041
0	6749	557585.155446454921	2383.8570451364
0	6758	558453.091008123049	2411.470405804
0	6763	558895.438877306917	2105.0951256417
0	6772	559822.596420021767	2237.4409735668
0	6781	560573.507326142902	2120.4163180199
0	6790	561027.799128787631	2016.9533479493
0	6803	562106.292875809635	2255.8868114837
0	6812	562773.407701263244	2098.6561371479
0	6817	563229.965851642231	1812.8188326024
0	6830	564501.381540298502	2395.0886644889
0	6839	565388.552879076491	2615.1451778132
0	6848	565975.607886817346	2338.6252032593
0	6855	566406.754149170632	1905.3726088721
0	6866	567543.693654611747	2155.1407755353
0	6871	567910.29956904244	1934.6916822251
0	6880	568845.39912021723	2141.6421453003
0	6891	569712.550460128154	2168.8568055164
0	6898	570268.645127210806	2150.2389300149
0	6907	570981.122806342359	2008.4411909804
0	6916	571722.480170382227	1992.8757454734
0	6921	572095.988386217545	1567.8235695697
0	6934	573030.539459176401	1625.6819654256
0	6945	573623.900598613585	1435.2031807881
0	6952	574313.871493376832	1689.9088324048
0	6963	575286.015519686084	2111.1019460019
0	6970	576227.7279785369	2226.4953833073
0	6981	576933.939002500887	2137.6444581896
0	6988	577315.631234133656	1667.1040940098
0	6999	578433.984877774534	1997.5068369415
0	7008	579292.438452551183	2185.4641987011
0	7015	579636.826078221244	1697.6686554495
0	7024	580551.339064305691	1932.0496005937
0	7033	580970.462698582601	1573.188161524
0	7042	581709.014568384779	1472.0696026459
0	7051	582612.328393198592	1888.3439749014
0	7060	583100.8138682228	1864.2260053195
0	7069	584242.774376040367	2138.9745611697
0	7082	585048.163055442316	2070.0893600006
0	7087	585373.988461447922	1722.0736021176
0	7096	585803.356454707724	1313.8527100906
0	7107	586945.293733337937	1897.1306778956
0	7118	587914.583115326284	2384.4710156322
0	7127	588320.674243010624	1948.7248825841
0	7134	588836.360571999146	1777.0746650174
0	7141	589155.745768966196	1241.1626536399
0	7150	590282.557469001083	1961.8832259905
0	7159	591101.089099003045	1985.5707806535
0	7168	591874.513255432291	2111.4990716334
0	7179	592752.253615530251	2178.5775820725
0	7186	593305.99321117629	1937.0661021676
0	7195	594008.831096906259	1823.0541564524
0	7204	594972.929883096411	2030.0871703774
0	7215	596008.489658078222	2205.3790214472
0	7222	596322.938587563156	1693.6157426331
0	7231	597205.552026629492	1811.1359409057
0	7240	597735.874410253063	1718.7101008371
0	7253	598860.53931866777	2091.318945447
0	7260	599532.595681026623	2250.6971277762
0	7271	600406.514628510967	2365.1262614876
0	7280	601259.769807290331	2399.2304886226
0	7285	601592.052830988586	2015.9266727976
0	7296	602566.447709407702	2159.9330808967
0	7305	603348.282363871157	2088.5125565808
0	7314	604049.76830366072	2081.1022122391
0	7321	604598.612351110249	1981.4054479357
1	3156	260168.304131459456	349
1	3165	260954.650659486663	350
1	3176	261438.358617341157	351
1	3185	262029.150430345919	352
1	3194	262905.932889087137	353
1	3203	263769.340202165779	354
1	3208	264252.557548787456	355
1	3219	265003.284094808635	356
1	3228	265704.075263114658	357
1	3235	266402.261352399376	358
1	3246	267311.960620014008	359
1	3257	268280.647497670737	360
1	3262	268807.495396630851	361
1	3271	269421.251537092042	362
1	3280	270032.400648761553	363
1	3289	270811.218559881684	364
1	3298	271364.870073599753	365
1	3309	272510.955150285749	366
1	3318	273387.94807288797	367
1	3329	274084.95299429634	368
1	3334	274586.8280646857	369
1	3347	275476.191789703457	370
1	3354	276135.989966942011	371
1	3363	276906.547790346681	372
1	3372	277725.796061893939	373
1	3379	278148.325245408355	374
1	3390	279100.099597312525	375
1	3397	280020.967057999238	376
1	3406	280467.39824074322	377
1	3415	281665.477401483818	378
1	3424	282393.18314599806	379
1	3433	283416.713782399908	380
1	3444	284266.135369241252	381
1	3451	284825.985653232797	382
1	3460	285741.660690726727	383
1	3473	286991.534765018165	384
1	3478	287320.392243890107	385
1	3487	287820.609403308495	386
1	3500	289087.724535260364	387
1	3509	289967.592462804183	388
1	3518	290863.690466154381	389
1	3525	291537.680790200844	390
1	3534	292305.716874729856	391
1	3541	292767.116448422908	392
1	3552	293914.869648451	393
1	3559	294564.676160831019	394
1	3570	295167.839489970371	395
1	3577	295507.631077989951	396
1	3590	296630.291850306109	397
1	3595	297209.46895605886	398
1	3604	297808.066027890906	399
1	3613	298329.710223013551	400
1	3624	299041.017363779263	401
1	3633	299792.814250197278	402
1	3640	300320.117569528537	403
1	3653	301157.850308530049	404
1	3660	301525.809210771711	405
1	3669	302168.874955549852	406
1	3678	303033.364215865747	407
1	3687	303887.04749490136	408
1	3698	304777.094244025663	409
1	3703	305159.519628714785	410
1	3714	305565.83510851489	411
1	3721	306102.414522366613	412
1	3730	307408.034718967989	413
1	3739	307810.82804803738	414
1	3748	308469.871738739326	415
1	3757	309410.285570332796	416
1	3766	310321.60840532744	417
1	3775	311061.113868188129	418
1	3786	312044.579777307825	419
1	3793	312622.367942053841	420
1	3806	313989.88964972088	421
1	3811	314301.792631857115	422
1	3820	315302.676002215612	423
1	3831	315961.558388499561	424
1	3838	316621.919311070833	425
1	3847	317005.478765722382	426
1	3860	317843.111873092147	427
1	3865	318309.955001296493	428
1	3876	318934.007952036353	429
1	3887	319831.327956961485	430
1	3892	320383.194682979973	431
1	3901	321098.946578800696	432
1	3910	321858.657873049396	433
1	3923	322818.344095023367	434
1	3928	323194.098404003325	435
1	3939	324256.768327625486	436
1	3946	324971.06432681905	437
1	3959	326051.427043508757	438
1	3966	326802.022768836487	439
1	3975	327578.811981249619	440
1	3984	328246.309699723515	441
1	3995	329201.045239856485	442
1	4000	329737.205357942749	443
1	4009	330273.348710266892	444
1	4020	331345.678079221416	445
1	4027	331877.27623740213	446
1	4038	332690.583174023796	447
1	4049	333762.880848767254	448
1	4054	334092.063432466257	449
1	4063	334715.500288456697	450
1	4076	335789.495978783835	451
1	4083	336442.838848102857	452
1	4094	337446.582809183765	453
1	4101	337903.815911617148	454
1	4110	338719.593910966087	455
1	4121	339515.561269596238	456
1	4128	340125.85027841853	457
1	4135	340542.494338564594	458
1	4144	341530.653171474133	459
1	4155	342556.47426531652	460
1	4164	343044.087804062311	461
1	4171	343839.10971879961	462
1	4182	344490.240651648511	463
1	4193	345580.750485509653	464
1	4202	346419.320858968441	465
1	4207	346969.449423858915	466
1	4216	347418.761225044747	467
1	4227	348304.30103028195	468
1	4234	349009.306251257677	469
1	4245	349579.253397602606	470
1	4252	350413.52516482586	471
1	4263	351379.830849124137	472
1	4274	352228.40482383037	473
1	4279	352762.471457524244	474
1	4290	353770.854973560219	475
1	4297	354170.810841908698	476
1	4306	354782.669614255448	477
1	4319	355982.137668924426	478
1	4326	356546.483772899975	479
1	4335	357343.220279971157	480
1	4342	357745.482967514564	481
1	4351	358516.189619433155	482
1	4362	359411.025922838619	483
1	4369	360003.662346443181	484
1	4380	360851.610077731331	485
1	4387	361183.843989064937	486
1	4396	361803.258431889136	487
1	4407	363266.46822975019	488
1	4414	363643.589841714148	489
1	4427	364620.832527196054	490
1	4436	365428.786303102989	491
1	4441	365885.233465489019	492
1	4450	366645.062368316595	493
1	4461	367690.645918808896	494
1	4468	368065.449842903782	495
1	4481	368931.642452906836	496
1	4490	369414.071036735568	497
1	4499	370213.094249647129	498
1	4506	371066.527497628722	499
1	4517	371757.890291372333	500
1	4522	372168.134170956929	501
1	4535	372902.316184574757	502
1	4542	373285.871402733047	503
1	4553	374581.988244038095	504
1	4560	375280.66708794797	505
1	4569	376164.171940460821	506
1	4580	376954.326702235287	507
1	4585	377604.358816612532	508
1	4594	377994.468087377048	509
1	4603	378814.822378428673	510
1	4612	379544.22032693403	511
1	4623	380813.791465340202	512
1	4632	381696.049714554121	513
1	4643	382584.94599130938	514
1	4648	382904.715907014927	515
1	4657	383454.428568016758	516
1	4670	384939.232537988594	517
1	4675	385391.769837029299	518
1	4684	386168.805230688325	519
1	4697	387238.42550427655	520
1	4704	387723.771024495384	521
1	4711	388477.119642030469	522
1	4724	389892.411300307161	523
1	4729	390358.476265054217	524
1	4740	391223.090832307956	525
1	4751	392251.18739954198	526
1	4760	392770.426812814569	527
1	4765	393274.543848959749	528
1	4778	394186.528247594854	529
1	4783	394749.672286212465	530
1	4794	395349.84162747862	531
1	4801	395904.333706526106	532
1	4810	396931.114999344592	533
1	4823	398050.42501478458	534
1	4830	398830.729607585838	535
1	4837	399217.656968766844	536
1	4850	400389.882338605841	537
1	4859	401273.633562773486	538
1	4864	401633.646921347847	539
1	4869	402049.355134600794	540
1	4882	403040.315669914728	541
1	4891	404136.141848517602	542
1	4904	405101.114345574772	543
1	4911	405641.342757130062	544
1	4918	406280.089443549534	545
1	4927	407071.343485359123	546
1	4940	408234.574805712348	547
1	4947	408788.536095852053	548
1	4954	409229.884606786093	549
1	4963	410182.43422494272	550
1	4976	411203.827682230642	551
1	4985	411950.977641530355	552
1	4990	412685.169941699152	553
1	5001	413502.133202366551	554
1	5008	413830.828280188163	555
1	5019	414942.240041121861	556
1	5026	415575.006641680395	557
1	5039	416276.629565516508	558
1	5046	416968.635219521842	559
1	5053	417570.776482298992	560
1	5066	418566.581788100324	561
1	5075	419371.248128637693	562
1	5084	420072.728346660755	563
1	5093	420807.989310007564	564
1	5098	421295.204161573223	565
1	5111	422489.357578614748	566
1	5118	422795.770510425813	567
1	5125	423700.506362970939	568
1	5138	424989.944647299147	569
1	5143	425384.248957922703	570
1	5152	426355.672678817085	571
1	5163	427388.780482532478	572
1	5174	428095.700925076402	573
1	5181	428916.244277497775	574
1	5190	429545.065979333616	575
1	5197	430078.896517166889	576
1	5206	430663.198608951665	577
1	5217	431716.763069015018	578
1	5224	432368.990727094955	579
1	5233	433011.600345047212	580
1	5246	434125.606482708848	581
1	5253	434860.598500259242	582
1	5264	435424.05853662642	583
1	5273	435990.169752482346	584
1	5282	436831.101190717912	585
1	5291	437670.092259021497	586
1	5298	438416.881228052101	587
1	5307	439010.918627539671	588
1	5318	440056.077252002454	589
1	5327	440878.925274498782	590
1	5336	441768.644720362521	591
1	5345	442429.050920018948	592
1	5350	442818.639888754136	593
1	5363	443978.302931506209	594
1	5368	444420.832229917891	595
1	5381	445288.943779980786	596
1	5386	445707.885287376143	597
1	5395	446237.66768826174	598
1	5408	447530.283405818068	599
1	5415	448020.953461574413	600
1	5422	448333.786648605041	601
1	5431	449469.777198974066	602
1	5444	450283.542834408605	603
1	5453	451099.556558439532	604
1	5458	451450.666121905694	605
1	5467	452185.192935448164	606
1	5476	453078.808865742782	607
1	5485	453826.331295305887	608
1	5494	454390.786393219629	609
1	5507	455407.410772657046	610
1	5516	456285.514478618303	611
1	5525	456929.890141636157	612
1	5534	457645.659534260654	613
1	5543	458263.556211255514	614
1	5550	458714.520561927953	615
1	5561	459836.353702610382	616
1	5566	460138.926505716541	617
1	5575	461084.048523288244	618
1	5586	461842.520794132747	619
1	5593	462276.06916422958	620
1	5602	463258.68830122056	621
1	5611	463943.357003666485	622
1	5624	465125.502127641836	623
1	5629	465464.096959261248	624
1	5638	466021.298911934742	625
1	5647	467049.989583157027	626
1	5660	468089.4524230622	627
1	5669	468986.573931248883	628
1	5674	469485.118143400202	629
1	5683	470156.278916867474	630
1	5694	471208.203196479033	631
1	5701	471750.644781952749	632
1	5710	472264.594224002238	633
1	5723	473832.920006755765	634
1	5730	474473.524842504438	635
1	5737	474891.102650994461	636
1	5748	476159.617226617436	637
1	5759	477049.121916946049	638
1	5768	477582.343624485682	639
1	5773	478100.303037045549	640
1	5784	479026.617612456928	641
1	5793	479873.057484766494	642
1	5802	480536.85058294798	643
1	5811	481315.829858975511	644
1	5822	482292.542898282435	645
1	5827	482628.868294134762	646
1	5836	483036.78762959319	647
1	5845	484205.58681003752	648
1	5854	484531.91925482827	649
1	5863	485451.448527490746	650
1	5874	486544.608819996965	651
1	5881	486935.410542273921	652
1	5892	487711.106565920663	653
1	5901	488334.144584834603	654
1	5912	489519.908061856431	655
1	5921	490300.689103687209	656
1	5926	490852.007797407013	657
1	5939	491821.921816002605	658
1	5948	492712.06397465433	659
1	5957	493360.608795052422	660
1	5962	493730.540944123668	661
1	5971	494566.338609438417	662
1	5984	495438.603348238421	663
1	5991	496108.419699221877	664
1	5998	496728.841163869974	665
1	6007	497417.747494764654	666
1	6020	498658.169075427604	667
1	6025	499320.539131248397	668
1	6036	500051.257344475043	669
1	6043	500854.528810875517	670
1	6054	501529.440996330259	671
1	6061	502124.731832323624	672
1	6074	503009.35276430103	673
1	6081	503733.035553758992	674
1	6088	504407.167223515017	675
1	6099	505478.480596980108	676
1	6110	506303.89490984383	677
1	6117	507109.455467574326	678
1	6124	507467.381517123459	679
1	6133	508138.546669576345	680
1	6142	508789.608219545363	681
1	6155	509684.558173315628	682
1	6162	510302.331153117149	683
1	6173	510994.953635986923	684
1	6182	511862.607165472611	685
1	6189	512218.464015657111	686
1	6198	513077.303711883753	687
1	6205	513788.433250738337	688
1	6214	514485.297968890548	689
1	6223	515503.579873451993	690
1	6234	516186.735332384736	691
1	6241	516556.527868146107	692
1	6254	518040.553896781088	693
1	6263	518888.121422845901	694
1	6270	519311.15164551887	695
1	6279	520290.429217787491	696
1	6290	521384.62288202721	697
1	6295	521716.993863601269	698
1	6304	522636.703911842809	699
1	6315	523451.932719117062	700
1	6322	523949.754184065418	701
1	6331	524730.092268576876	702
1	6340	525424.786128010632	703
1	6351	526205.652236379714	704
1	6358	526810.834561614351	705
1	6367	527640.132715646209	706
1	6376	528181.720011821048	707
1	6385	528928.321831813114	708
1	6394	529531.059534195842	709
1	6405	530467.353626852886	710
1	6412	531223.862001998382	711
1	6423	531942.374034645067	712
1	6430	532489.754440030114	713
1	6441	533286.583324475246	714
1	6450	533908.317823754656	715
1	6459	534900.078953756052	716
1	6466	535415.821255417574	717
1	6477	536353.18500590514	718
1	6488	537120.766872307319	719
1	6497	537847.268076147918	720
1	6506	538521.121850330417	721
1	6511	538825.806788401713	722
1	6524	539641.965305479278	723
1	6531	540258.600046578829	724
1	6540	540885.430738097092	725
1	6547	541730.785077950021	726
1	6560	542505.204447079485	727
1	6565	542908.23855400089	728
1	6574	543390.457023493981	729
1	6585	543890.785489277949	730
1	6592	544395.985373295879	731
1	6605	545674.84530746009	732
1	6614	546291.217774897849	733
1	6623	546950.245033018326	734
1	6630	547365.445094229689	735
1	6639	548251.822717627546	736
1	6650	549133.815616322717	737
1	6659	550024.924951465836	738
1	6668	550828.05056548681	739
1	6673	551212.131631700358	740
1	6682	551902.925481693855	741
1	6693	553063.320999126918	742
1	6702	553765.457530645691	743
1	6711	554390.353610878848	744
1	6720	555178.193140123077	745
1	6727	555518.674912210591	746
1	6736	556403.520967438855	747
1	6749	557585.155446454921	748
1	6758	558453.091008123049	749
1	6763	558895.438877306917	750
1	6772	559822.596420021767	751
1	6781	560573.507326142902	752
1	6790	561027.799128787631	753
1	6803	562106.292875809635	754
1	6812	562773.407701263244	755
1	6817	563229.965851642231	756
1	6830	564501.381540298502	757
1	6839	565388.552879076491	758
1	6848	565975.607886817346	759
1	6855	566406.754149170632	760
1	6866	567543.693654611747	761
1	6871	567910.29956904244	762
1	6880	568845.39912021723	763
1	6891	569712.550460128154	764
1	6898	570268.645127210806	765
1	6907	570981.122806342359	766
1	6916	571722.480170382227	767
1	6921	572095.988386217545	768
1	6934	573030.539459176401	769
1	6945	573623.900598613585	770
1	6952	574313.871493376832	771
1	6963	575286.015519686084	772
1	6970	576227.7279785369	773
1	6981	576933.939002500887	774
1	6988	577315.631234133656	775
1	6999	578433.984877774534	776
1	7008	579292.438452551183	777
1	7015	579636.826078221244	778
1	7024	580551.339064305691	779
1	7033	580970.462698582601	780
1	7042	581709.014568384779	781
1	7051	582612.328393198592	782
1	7060	583100.8138682228	783
1	7069	584242.774376040367	784
1	7082	585048.163055442316	785
1	7087	585373.988461447922	786
1	7096	585803.356454707724	787
1	7107	586945.293733337937	788
1	7118	587914.583115326284	789
1	7127	588320.674243010624	790
1	7134	588836.360571999146	791
1	7141	589155.745768966196	792
1	7150	590282.557469001083	793
1	7159	591101.089099003045	794
1	7168	591874.513255432291	795
1	7179	592752.253615530251	796
1	7186	593305.99321117629	797
1	7195	594008.831096906259	798
1	7204	594972.929883096411	799
1	7215	596008.489658078222	800
1	7222	596322.938587563156	801
1	7231	597205.552026629492	802
1	7240	597735.874410253063	803
1	7253	598860.53931866777	804
1	7260	599532.595681026623	805
1	7271	600406.514628510967	806
1	7280	601259.769807290331	807
1	7285	601592.052830988586	808
1	7296	602566.447709407702	809
1	7305	603348.282363871157	810
1	7314	604049.76830366072	811
1	7321	604598.612351110249	812

