version 2
run Pipelined_3Teachers-69-20190105-10:57:33-3788
attr configname Pipelined_3Teachers
attr datetime 20190105-10:57:33
attr experiment Pipelined_3Teachers
attr inifile ../simulations/omnetpp.ini
attr iterationvars "$0=\"uniform\""
attr iterationvarsf uniform-
attr measurement "$0=\"uniform\""
attr network PipelinedExamSession
attr processid 3788
attr repetition 69
attr replication #69
attr resultdir results
attr runnumber 69
attr seedset 69
param **.teachersNumber 3
param **.answerTimeDistribution "\"uniform\""
param **.minUniform 300
param **.maxUniform 900
param **.scaleLognormal 6.2854
param **.shapeLognormal 0.4724

vector 0 PipelinedExamSession examinationTime:vector ETV
attr source examFinished
vector 1 PipelinedExamSession studentID:vector ETV
attr source student
0	3226	260211.715848092003	1732.5948727783
0	3235	260781.855391664443	1662.955494225
0	3246	261692.621332453577	1726.0215888731
0	3255	262158.71260268615	1534.9398611113
0	3262	262509.691489627598	1352.6519211475
0	3271	263468.352001206962	1712.1335228439
0	3280	264212.487043580053	1850.7847300731
0	3291	264934.385835332809	1724.6425565332
0	3302	266087.41550180131	2382.0220985916
0	3307	266543.309051217524	2007.7672859654
0	3316	267382.322508562369	2144.0531666391
0	3327	268463.029660144833	2375.6141583435
0	3334	268948.557144915698	1963.7745444663
0	3343	269584.487834293408	1756.4723948948
0	3352	270082.865094020976	1526.7955719028
0	3363	271000.560995237915	1660.9029189683
0	3366	271325.707146758227	1352.629356226
0	3379	272661.090881237774	2018.717223499
0	3390	274062.501146318404	2569.7559909895
0	3397	274370.243873493759	1990.0250722189
0	3410	275543.401957908659	2273.7545320764
0	3415	276025.860825972645	1902.3545118514
0	3428	277175.934222852825	2404.2443606537
0	3437	278021.567357378094	2478.1653994694
0	3442	278461.914357030778	2147.1751558129
0	3453	279302.492819074555	2126.5585962217
0	3460	279658.897181600346	1637.3298242223
0	3473	280755.088617838933	2037.1366851032
0	3482	281588.976633176221	2120.3822574578
0	3491	282441.960214963196	2453.7756746169
0	3496	282794.729665154604	2039.6410473157
0	3509	283872.648860514178	2283.672227338
0	3518	284592.619510553791	2150.6592955906
0	3527	285275.87274173276	2274.5058554225
0	3532	285998.568619089215	2125.919758575
0	3543	286884.80716645719	2292.1876559034
0	3552	287254.363046726226	1978.4903049935
0	3561	288470.967299351483	2358.404844068
0	3572	289351.121348049506	2452.3022637237
0	3577	289803.922070330023	2042.2802522779
0	3588	290749.249279685333	2267.5774214789
0	3599	291737.698216689765	2386.5768686403
0	3606	292382.428961433485	2363.2021048106
0	3617	293324.858023831635	2454.7045652289
0	3626	294161.640956718489	2423.9427400287
0	3631	294516.82141637431	1935.8498924877
0	3640	295051.800281228512	1726.9422573969
0	3649	295736.430059373394	1574.7891026549
0	3660	296981.805584812552	2184.4749530777
0	3667	297352.705924026683	2060.8453483321
0	3676	297888.179549016074	1709.3650935218
0	3689	299151.896663289533	2144.2277820781
0	3694	299671.99918502012	2023.5560189467
0	3705	300661.826907238008	2199.613252189
0	3712	301362.353194970654	2210.4565316811
0	3721	301896.749546192604	1921.1490794085
0	3730	302982.974030915665	2114.8927750066
0	3741	303793.230028124544	2342.5570461899
0	3750	304499.533552117663	2167.0136480592
0	3757	305313.680596835929	2117.7451472729
0	3770	306341.595027130114	2247.7650824469
0	3779	306794.323938433098	1987.4254183844
0	3788	307619.743053149449	2133.8237859774
0	3793	308057.213706476631	1715.6186793465
0	3802	308762.960962113011	1968.6370236799
0	3811	309832.500922679919	2212.7578695305
0	3820	310325.159242702666	1955.9906226117
0	3831	311108.562832279148	1874.5279567782
0	3838	311711.608157772588	1669.8214947246
0	3847	312149.914713436754	1675.3667256329
0	3856	313027.387592196482	1780.8508079499
0	3861	313641.851487010735	1683.6433716584
0	3876	315002.896145638096	2192.9418163374
0	3887	315700.352691393363	2031.7390407901
0	3894	316125.403933972138	1589.8705333471
0	3905	316990.247200336325	1813.948511146
0	3914	317641.896919487062	1941.5442280937
0	3919	318082.571206055599	1896.3583664037
0	3928	318711.623591696862	1721.3763913605
0	3937	319320.772617403436	1678.8756979164
0	3948	320295.889332331736	2164.2059943639
0	3955	320625.338806025703	1624.2216171697
0	3968	321960.58652428912	2281.7142478656
0	3975	322664.846324874107	2175.2241640817
0	3984	323317.696302384157	2208.1914194394
0	3991	323881.606506742556	1921.0199824534
0	4002	325010.603328142334	2171.4400773402
0	4009	325637.19611861745	1997.9340918828
0	4022	326910.686003230532	2506.4848756883
0	4027	327365.811896463876	2086.2080206163
0	4038	328231.315696192925	2099.2961502168
0	4049	329181.129818642532	2270.443815412
0	4058	329923.148194374537	2196.7236667871
0	4067	330781.264773616588	2311.2670286559
0	4076	331636.577475629768	2455.4476569872
0	4081	332056.241901218912	2133.0937068444
0	4092	333359.084954531884	2577.8201809153
0	4103	334076.053662691287	2439.4761870615
0	4112	334890.780051844216	2354.7100227792
0	4117	335375.02935701052	1972.2884462681
0	4126	335865.47938459555	1789.4257219043
0	4139	336778.510109474904	1887.7300576307
0	4146	337542.78945811095	1800.9779479355
0	4153	338101.947945635787	1937.9169613123
0	4164	338930.192039860434	2151.6819303855
0	4171	339311.400963831714	1742.1455170959
0	4180	340175.051517644919	1896.6808088589
0	4191	341140.849925391398	2175.044728769
0	4200	341848.996822536014	2155.3110072389
0	4211	342584.576719673374	2214.7282982245
0	4218	343126.757558668056	1900.553100463
0	4229	343969.73536354492	2052.2887830622
0	4234	344441.977389436239	1857.4006697629
0	4243	345261.633099149937	2069.7369534988
0	4252	346102.800062578195	2133.0646990333
0	4265	347059.678387921327	2192.4410243053
0	4270	347486.412952188426	1855.5275590159
0	4283	348507.1780077182	2291.4410151076
0	4290	349013.453856809089	1953.7754688878
0	4301	350144.58126300017	2261.5729512647
0	4308	350707.113067712659	2199.9350599945
0	4315	351116.737723024586	1823.4950582497
0	4326	352273.48412428985	2128.9028612897
0	4335	353006.26930170695	2053.1087724958
0	4344	353738.566937902967	1998.1973793358
0	4351	354361.837031459461	1952.6674205437
0	4364	355293.091761879647	2248.2542029582
0	4371	356002.042993577221	2112.0922719128
0	4382	356775.608347775438	2103.6302176304
0	4387	357133.712689345726	1840.6209274661
0	4396	357880.074315285334	1857.4453978334
0	4409	358621.453961078101	1845.8456133027
0	4418	359362.095032818639	2083.5331512149
0	4427	360166.607985086763	2103.5589246545
0	4432	360475.874946685532	1854.4209856074
0	4445	361737.080175569305	2374.9851427507
0	4452	362469.280986813852	2302.6730017271
0	4463	363096.772281965265	2089.0892889351
0	4468	363478.052982548276	1740.972806979
0	4481	364620.608863094845	2146.0007060319
0	4490	365448.920589359501	2352.1483073942
0	4495	365779.852655343735	1943.3399333619
0	4504	366516.071203211346	1895.4623401165
0	4513	367240.10415351952	1791.18356416
0	4524	367982.363696722338	1825.158596551
0	4531	368294.239917397523	1521.2273956742
0	4542	369286.088709533239	1710.6086157728
0	4553	369800.424909358869	1607.8750759363
0	4560	370531.82904249991	1723.5840874258
0	4567	371352.260645153026	2041.013694182
0	4578	372336.233150074283	2535.8082407154
0	4587	373165.492448676402	2553.3647987992
0	4594	373772.655257396425	2301.4431010466
0	4605	374427.283575106438	2056.9321710616
0	4616	375721.597068384315	2551.4358602464
0	4621	376179.355069343026	2134.5175903291
0	4632	377171.613245643701	2248.0931520928
0	4639	377538.035465078454	1816.4383966941
0	4650	378813.546938588868	2395.9721581545
0	4657	379313.506504660497	2098.284077039
0	4670	380528.404012508715	2436.0931211617
0	4677	381071.603255393008	2117.6053235773
0	4684	381964.445713302145	2156.3886967488
0	4695	382894.118673820073	2365.7146613114
0	4706	383922.284889500613	2500.6551311351
0	4711	384364.879680331821	2074.014907144
0	4720	385081.29661828282	2038.3507356048
0	4729	385648.051704978595	1725.766815478
0	4742	386807.413415936779	2213.3369943593
0	4751	387436.399523913886	1946.3152231649
0	4760	387986.84888198043	1920.3727176413
0	4765	388666.952800238531	1859.5393843018
0	4774	388995.668605109702	1559.2690811958
0	4783	390071.313305106039	2084.4644231256
0	4794	391005.69688165563	2331.9014242385
0	4801	391409.894560463753	1863.4547678288
0	4812	391909.917417727437	1727.4244625587
0	4819	392292.732366453882	1278.9271799382
0	4828	393002.252743067246	1503.6229491234
0	4837	393760.355987772372	1569.7943334002
0	4846	394513.834186038029	1736.2176140305
0	4857	395165.319095179465	1937.6854183618
0	4868	395861.119344038915	1915.9377928823
0	4873	396190.577181056168	1524.409843795
0	4886	397198.693965235751	1931.6068651155
0	4893	397864.802637510028	2003.6832934711
0	4900	398482.031432585817	1837.1713779867
0	4909	399171.58136023211	1972.8873949964
0	4918	400048.572055343564	1967.4409930129
0	4927	400730.93452043834	1938.2149469107
0	4936	401265.7600225881	1586.9106397033
0	4945	402645.709276199367	2232.6349420007
0	4954	402999.039186537292	1780.3087530658
0	4967	404368.030028231468	2250.2203501761
0	4976	405022.310950141426	2144.8927440215
0	4983	405682.927303249042	2208.4907029755
0	4990	406563.457481190588	2195.4274529591
0	4999	407027.825194783535	2005.5142446421
0	5010	408032.979489723247	2156.9189123344
0	5017	408722.054863069233	1980.4591349792
0	5026	409682.489095302326	2172.190675512
0	5035	410265.967167075751	1920.1074881013
0	5048	411323.983105737743	2132.3975527659
0	5057	411956.203973712427	2094.8084967211
0	5062	412673.692273115767	2179.0484635625
0	5071	413177.370584383634	1853.3874786459
0	5080	413575.94900303523	1619.7450293228
0	5089	414233.34778617139	1419.5112847723
0	5100	415057.825052412255	1788.5371775832
0	5111	416093.553865933819	1967.1323558316
0	5118	416683.100146567477	2155.3147082683
0	5129	417405.650765681667	2127.2805062123
0	5136	418149.115513404859	2055.561647471
0	5143	418622.316999826608	1703.3213715535
0	5152	419474.674616474686	2069.023850793
0	5161	420331.919930828763	2039.142215671
0	5174	421493.015489168492	2394.2327215802
0	5181	422013.201108947423	2126.2829875108
0	5188	422349.204572942135	1620.9750660695
0	5193	423080.364514142302	1587.3490249738
0	5206	424304.674591496614	1959.4027468935
0	5215	425186.288409540457	2018.3062033262
0	5228	426246.369906049249	2323.4494447242
0	5235	426856.597044831169	2185.5317543261
0	5242	427630.68136386576	2271.9970950857
0	5255	428550.907215708894	2304.5373096596
0	5264	429303.381055500386	2307.5403378345
0	5273	430168.091689283056	2355.6373191532
0	5280	430616.397071164129	2065.4898554552
0	5283	430923.801732016755	1620.4206765164
0	5300	432383.41612620282	2215.3244369198
0	5305	432875.722840055851	1896.8182460871
0	5318	433799.292129976703	2309.4082030468
0	5327	434598.057541530607	2214.6414153278
0	5334	435017.035838635666	2040.8123457804
0	5341	435547.443299135221	1748.1511691585
0	5354	436670.415329793496	2072.3577882629
0	5363	437545.536259794636	2303.46414987
0	5368	438209.98510820794	2396.3446264621
0	5377	438651.181769790156	1980.7664399967
0	5388	439659.955294104321	2114.4190343097
0	5397	440181.499967258452	1908.8627485558
0	5406	440881.772273127018	1979.1941779666
0	5413	441459.971912205248	1792.3615087755
0	5424	442305.121114617242	1850.7277261466
0	5431	442686.710188770695	1750.6282889284
0	5444	444126.331748580589	2359.4250713009
0	5451	444562.432854110404	2128.2672867179
0	5460	445391.9832190499	2159.7332007252
0	5467	446182.181734778016	2055.8499861974
0	5480	447212.897143000766	2378.9617708884
0	5487	447743.87550400573	2041.3007169496
0	5494	448212.271672999515	1629.1457229294
0	5505	449123.303974187031	1910.4068311863
0	5514	450053.175800945639	2296.4975387324
0	5523	450693.093723803788	2157.7274547424
0	5530	451025.280324183434	1690.4329859186
0	5535	451532.457656180515	1341.1645743996
0	5550	452753.648258792266	1958.3379744552
0	5553	453079.560521431297	1489.133695839
0	5570	454617.920780321614	2270.839019632
0	5575	455053.026810754121	1912.0626697317
0	5584	455574.968358501823	1781.4377489034
0	5593	456141.414821008251	1523.4940406866
0	5604	457277.185633499206	1998.70949951
0	5613	457988.336540479243	2174.0501906723
0	5620	458302.14032381776	1809.4105406664
0	5631	459375.163413304867	2068.1609320454
0	5640	460081.287410622494	1914.2376380973
0	5651	460824.124377267467	1906.1063096859
0	5658	461256.319261668282	1706.3463952392
0	5667	462319.729333743485	2199.7257852461
0	5676	462857.05745466988	2032.9330774024
0	5685	463548.463169485363	1947.6657469757
0	5692	463968.980651395428	1518.4881809168
0	5701	464608.338575391132	1435.5893079657
0	5712	465615.660316078025	2012.8888458945
0	5723	466492.662728531319	2004.7384803649
0	5732	467085.770188830826	2049.0790267009
0	5739	467688.140097772736	1896.0502455477
0	5746	468144.538450241122	1651.8757217098
0	5759	469173.047492047805	2087.277303217
0	5764	469653.086574235964	1868.7040129211
0	5777	470560.934887966174	2016.3455220871
0	5786	471304.658490093458	2131.6109980457
0	5793	472049.326777691055	2240.8382818568
0	5802	472737.30471977036	2176.3698318042
0	5809	473405.574133386868	2100.9156432934
0	5818	474183.605400100383	2075.4822389223
0	5827	474799.573915405232	1886.8525968399
0	5836	475605.596589669617	2022.1914780792
0	5845	476131.085905618997	1760.4182367213
0	5854	476736.46235377531	1640.5091810972
0	5865	477873.838097602161	1958.7133610621
0	5876	478626.314737228709	1892.501753848
0	5885	479456.89340522516	2090.5172475614
0	5892	480026.13962008621	2015.7247956377
0	5899	480614.764354191752	1988.449616963
0	5908	481546.011374658006	2089.1179694328
0	5921	482407.416071556541	2112.3882989399
0	5926	482718.47982821058	1695.5413442105
0	5939	484000.112346187266	2149.9646847602
0	5944	484384.514777641776	1977.0987060852
0	5957	485430.033030035006	2247.7524370886
0	5966	486311.913429899173	2311.8010837119
0	5975	487116.794514935496	2546.8886277638
0	5982	487700.952451257068	2270.9194212221
0	5989	488199.79421636093	1887.8807864618
0	6000	488937.662304611909	1820.8677896764
0	6011	489678.162089735302	1793.9527692273
0	6016	490174.623493524301	1903.4927181434
0	6025	490845.374790346283	1761.0943317879
0	6038	491936.771963629904	2258.6098738946
0	6045	492696.645286213639	2300.7828217931
0	6054	493123.746375180814	1916.0928519443
0	6061	493794.59391315471	1857.8219495248
0	6074	494773.376569803837	2066.4151648991
0	6083	495631.091957353088	2330.7442892343
0	6088	496218.494393304023	2250.9560137521
0	6097	496915.510777942869	2142.134208139
0	6108	497916.049387212876	2284.9574298598
0	6115	498321.102557564188	1859.5795548521
0	6124	499095.326188020442	1811.4016679116
0	6133	499578.571607871015	1587.607631553
0	6142	500139.089402183924	1328.0508074909
0	6151	500790.425501111929	1588.019777555
0	6160	501778.470740513909	1854.6376886778
0	6171	502878.164839977432	2414.6351706237
0	6180	503351.911726500873	1999.6712295804
0	6191	504255.231002345715	2074.7374717612
0	6200	505114.081451157142	2215.9530932084
0	6209	505825.236375024576	2347.0850771293
0	6218	506671.749688312445	2416.5186859667
0	6225	507519.573432812501	2405.4919816554
0	6236	508280.404185829718	2455.1678108051
0	6245	509110.13800632212	2438.3883180097
0	6250	509487.669413723086	1916.3076340221
0	6261	510144.878930551966	1864.4747447222
0	6270	510991.426436137443	1881.2884298153
0	6279	511731.235592253541	2010.7795001473
0	6286	512176.906668953632	1692.3008497339
0	6291	512611.291526863386	1385.7780219521
0	6304	513725.83229807209	1834.3424721155
0	6313	514352.669752948021	1617.6993409172
0	6324	514977.762259589543	1538.9172841329
0	6331	515568.051230907475	1661.3750944845
0	6340	516679.605425382068	2045.5264049582
0	6349	517593.757372722065	2069.2364430986
0	6362	518599.205490946804	2233.1296078395
0	6367	518945.800356147845	1684.2433896381
0	6380	520145.764574501698	2221.6656414326
0	6389	520911.393889971112	2312.1883990243
0	6394	521457.431438891252	2027.2800049279
0	6403	521995.254329592024	1849.4897550903
0	6412	522891.031032102218	1979.6371421311
0	6421	523836.41606625173	2115.9884974826
0	6432	524824.225723324378	2364.3156058621
0	6443	525395.143781695549	2045.6709254533
0	6448	526076.398118957911	1883.0170978792
0	6459	526725.757780484889	1743.051353842
0	6468	527493.820642679964	2098.6768609844
0	6479	528253.267480200191	2056.0757294297
0	6484	528672.362683340942	1766.5670198388
0	6497	530002.734015975182	2405.779220676
0	6502	530350.301079265808	2097.0335990656
0	6511	531417.339618131553	2276.6155023593
0	6520	532347.347322944587	2344.6133069694
0	6531	533090.230417577585	2213.3366199676
0	6542	533750.504322862288	1995.2453223523
0	6551	534543.375661689824	2068.3500860352
0	6558	535167.087822686917	2060.452573467
0	6569	535979.792434349692	2229.2881114874
0	6578	536789.28254563365	2245.9068839438
0	6587	537505.211780313438	2132.4291581288
0	6594	538153.844932979008	2174.0524986293
0	6601	538497.650981554797	1708.3684359211
0	6610	539539.79273177687	2034.5809514634
0	6621	540436.597981117701	2034.3726829626
0	6632	541134.23250583004	1909.0408829972
0	6639	541837.539436994156	2051.7119712196
0	6648	542734.109731949901	2101.0644353461
0	6659	543558.057012548706	2423.8245067187
0	6668	544363.595406571439	2411.3707426004
0	6677	545161.314257187805	2312.3287901748
0	6684	545832.838864624537	2274.7818520758
0	6691	546448.448722483626	2084.8533159122
0	6704	547300.886756507716	2139.5724993199
0	6709	547670.43992830444	1701.2167346198
0	6718	548376.819730969182	1749.268911453
0	6731	549363.522264780513	2062.6355082728
0	6738	549846.250224206633	1798.2960044872
0	6745	550470.008728466964	1884.1035373975
0	6754	550936.476960824839	1572.9546960443
0	6765	552050.942496769166	1960.0468293764
0	6774	552842.236206354609	2081.350710243
0	6785	553622.867272747716	2220.1296515297
0	6794	554210.821171430906	2034.4764608424
0	6801	555027.274424443057	2065.4046140146
0	6812	555763.462953642046	2140.5956808943
0	6817	556079.383626300877	1868.56245487
0	6828	557132.770907739213	2057.8158137854
0	6835	557663.338774675539	1899.8758210335
0	6844	558675.296867731994	2039.6617478225
0	6857	559807.383074518329	2332.0967174135
0	6862	560301.267137937284	2092.538563069
0	6871	560901.248000096566	1927.8031545226
0	6884	561591.84683533389	1784.4637608156
0	6891	561916.537009784988	1507.2214471176
0	6898	562804.566773772276	1767.2113649547
0	6909	563698.469416424669	2106.6225810908
0	6916	564102.688373252786	1763.855623221
0	6925	565418.488707952239	2303.6650358699
0	6934	565941.180345229842	2047.946846718
0	6945	567023.838146589735	2243.1557765231
0	6952	567463.908304972613	1829.8427791335
0	6961	568074.737852532455	1548.1477263384
0	6970	568540.565126901531	1290.4120702296
0	6981	569464.265836961606	1703.1454680953
0	6990	570343.197652744168	2116.9388973154
0	6997	570836.54954060916	1854.7931771725
0	7010	572078.959451336452	2333.2514983602
0	7019	572964.6583842114	2349.1084977519
0	7028	573839.861229714045	2458.680140879
0	7035	574488.784186262676	2409.8247349262
0	7044	575253.643072396556	2288.9846881852
0	7051	575578.227526601443	1738.3662968874
0	7062	576108.293475536668	1553.0442520045
0	7069	577010.964618762994	1718.3772832621
0	7080	577588.540772348681	1934.1501039919
0	7083	577924.72182009373	1444.32654907
0	7096	579034.302315954158	1864.3603522796
0	7109	579970.430422900284	2037.1391648892
0	7118	580687.46352950115	2001.6179570463
0	7125	581112.904071109409	2025.4751888104
0	7132	581545.531715126748	1575.1012922265
0	7141	582202.505605900701	1515.0420763996
0	7152	582985.038782889063	1845.1608104166
0	7159	583726.843096129635	1953.9761348627
0	7168	584198.576333513522	1806.6785902251
0	7181	585153.977185953448	2089.1830194276
0	7190	586050.949456449638	2199.9861528631
0	7197	586634.933519968803	1884.2480796855
0	7204	587254.62302849632	2100.6458425429
0	7215	587949.689510744105	1898.7400542945
0	7226	588818.324549635912	1895.9335922264
0	7233	589638.372351508627	2044.9938298669
0	7242	590223.221334256271	2186.60048889
0	7251	591270.652716374064	2452.3281667382
0	7260	591752.883819490711	2076.753275888
0	7269	592678.498384868766	2121.6896287166
0	7276	593157.656943239312	1811.7323099636
0	7287	594047.118301922496	2089.839849947
0	7294	594508.575473818969	1779.9490455072
0	7303	595185.739105241414	1615.329396911
0	7316	596366.554416809271	2227.6146596298
0	7321	596741.965367971028	1844.5308746304
0	7334	598038.722571451257	2394.2411954049
0	7343	598690.753318369429	2324.1989015602
0	7348	599432.855117507319	2283.6323560216
0	7359	600081.471768161323	2042.7491967101
0	7368	600826.819742191624	2136.0664238222
0	7375	601278.332616481971	1723.8258347847
0	7384	602084.750217804726	1912.6886368264
0	7397	603191.205266676885	2256.9528243039
0	7402	603684.304945170921	1980.2606577985
0	7411	604644.060802040664	2045.5952638295
1	3226	260211.715848092003	357
1	3235	260781.855391664443	358
1	3246	261692.621332453577	359
1	3255	262158.71260268615	360
1	3262	262509.691489627598	361
1	3271	263468.352001206962	362
1	3280	264212.487043580053	363
1	3291	264934.385835332809	364
1	3302	266087.41550180131	365
1	3307	266543.309051217524	366
1	3316	267382.322508562369	367
1	3327	268463.029660144833	368
1	3334	268948.557144915698	369
1	3343	269584.487834293408	370
1	3352	270082.865094020976	371
1	3363	271000.560995237915	372
1	3366	271325.707146758227	373
1	3379	272661.090881237774	374
1	3390	274062.501146318404	375
1	3397	274370.243873493759	376
1	3410	275543.401957908659	377
1	3415	276025.860825972645	378
1	3428	277175.934222852825	379
1	3437	278021.567357378094	380
1	3442	278461.914357030778	381
1	3453	279302.492819074555	382
1	3460	279658.897181600346	383
1	3473	280755.088617838933	384
1	3482	281588.976633176221	385
1	3491	282441.960214963196	386
1	3496	282794.729665154604	387
1	3509	283872.648860514178	388
1	3518	284592.619510553791	389
1	3527	285275.87274173276	390
1	3532	285998.568619089215	391
1	3543	286884.80716645719	392
1	3552	287254.363046726226	393
1	3561	288470.967299351483	394
1	3572	289351.121348049506	395
1	3577	289803.922070330023	396
1	3588	290749.249279685333	397
1	3599	291737.698216689765	398
1	3606	292382.428961433485	399
1	3617	293324.858023831635	400
1	3626	294161.640956718489	401
1	3631	294516.82141637431	402
1	3640	295051.800281228512	403
1	3649	295736.430059373394	404
1	3660	296981.805584812552	405
1	3667	297352.705924026683	406
1	3676	297888.179549016074	407
1	3689	299151.896663289533	408
1	3694	299671.99918502012	409
1	3705	300661.826907238008	410
1	3712	301362.353194970654	411
1	3721	301896.749546192604	412
1	3730	302982.974030915665	413
1	3741	303793.230028124544	414
1	3750	304499.533552117663	415
1	3757	305313.680596835929	416
1	3770	306341.595027130114	417
1	3779	306794.323938433098	418
1	3788	307619.743053149449	419
1	3793	308057.213706476631	420
1	3802	308762.960962113011	421
1	3811	309832.500922679919	422
1	3820	310325.159242702666	423
1	3831	311108.562832279148	424
1	3838	311711.608157772588	425
1	3847	312149.914713436754	426
1	3856	313027.387592196482	427
1	3861	313641.851487010735	428
1	3876	315002.896145638096	429
1	3887	315700.352691393363	430
1	3894	316125.403933972138	431
1	3905	316990.247200336325	432
1	3914	317641.896919487062	433
1	3919	318082.571206055599	434
1	3928	318711.623591696862	435
1	3937	319320.772617403436	436
1	3948	320295.889332331736	437
1	3955	320625.338806025703	438
1	3968	321960.58652428912	439
1	3975	322664.846324874107	440
1	3984	323317.696302384157	441
1	3991	323881.606506742556	442
1	4002	325010.603328142334	443
1	4009	325637.19611861745	444
1	4022	326910.686003230532	445
1	4027	327365.811896463876	446
1	4038	328231.315696192925	447
1	4049	329181.129818642532	448
1	4058	329923.148194374537	449
1	4067	330781.264773616588	450
1	4076	331636.577475629768	451
1	4081	332056.241901218912	452
1	4092	333359.084954531884	453
1	4103	334076.053662691287	454
1	4112	334890.780051844216	455
1	4117	335375.02935701052	456
1	4126	335865.47938459555	457
1	4139	336778.510109474904	458
1	4146	337542.78945811095	459
1	4153	338101.947945635787	460
1	4164	338930.192039860434	461
1	4171	339311.400963831714	462
1	4180	340175.051517644919	463
1	4191	341140.849925391398	464
1	4200	341848.996822536014	465
1	4211	342584.576719673374	466
1	4218	343126.757558668056	467
1	4229	343969.73536354492	468
1	4234	344441.977389436239	469
1	4243	345261.633099149937	470
1	4252	346102.800062578195	471
1	4265	347059.678387921327	472
1	4270	347486.412952188426	473
1	4283	348507.1780077182	474
1	4290	349013.453856809089	475
1	4301	350144.58126300017	476
1	4308	350707.113067712659	477
1	4315	351116.737723024586	478
1	4326	352273.48412428985	479
1	4335	353006.26930170695	480
1	4344	353738.566937902967	481
1	4351	354361.837031459461	482
1	4364	355293.091761879647	483
1	4371	356002.042993577221	484
1	4382	356775.608347775438	485
1	4387	357133.712689345726	486
1	4396	357880.074315285334	487
1	4409	358621.453961078101	488
1	4418	359362.095032818639	489
1	4427	360166.607985086763	490
1	4432	360475.874946685532	491
1	4445	361737.080175569305	492
1	4452	362469.280986813852	493
1	4463	363096.772281965265	494
1	4468	363478.052982548276	495
1	4481	364620.608863094845	496
1	4490	365448.920589359501	497
1	4495	365779.852655343735	498
1	4504	366516.071203211346	499
1	4513	367240.10415351952	500
1	4524	367982.363696722338	501
1	4531	368294.239917397523	502
1	4542	369286.088709533239	503
1	4553	369800.424909358869	504
1	4560	370531.82904249991	505
1	4567	371352.260645153026	506
1	4578	372336.233150074283	507
1	4587	373165.492448676402	508
1	4594	373772.655257396425	509
1	4605	374427.283575106438	510
1	4616	375721.597068384315	511
1	4621	376179.355069343026	512
1	4632	377171.613245643701	513
1	4639	377538.035465078454	514
1	4650	378813.546938588868	515
1	4657	379313.506504660497	516
1	4670	380528.404012508715	517
1	4677	381071.603255393008	518
1	4684	381964.445713302145	519
1	4695	382894.118673820073	520
1	4706	383922.284889500613	521
1	4711	384364.879680331821	522
1	4720	385081.29661828282	523
1	4729	385648.051704978595	524
1	4742	386807.413415936779	525
1	4751	387436.399523913886	526
1	4760	387986.84888198043	527
1	4765	388666.952800238531	528
1	4774	388995.668605109702	529
1	4783	390071.313305106039	530
1	4794	391005.69688165563	531
1	4801	391409.894560463753	532
1	4812	391909.917417727437	533
1	4819	392292.732366453882	534
1	4828	393002.252743067246	535
1	4837	393760.355987772372	536
1	4846	394513.834186038029	537
1	4857	395165.319095179465	538
1	4868	395861.119344038915	539
1	4873	396190.577181056168	540
1	4886	397198.693965235751	541
1	4893	397864.802637510028	542
1	4900	398482.031432585817	543
1	4909	399171.58136023211	544
1	4918	400048.572055343564	545
1	4927	400730.93452043834	546
1	4936	401265.7600225881	547
1	4945	402645.709276199367	548
1	4954	402999.039186537292	549
1	4967	404368.030028231468	550
1	4976	405022.310950141426	551
1	4983	405682.927303249042	552
1	4990	406563.457481190588	553
1	4999	407027.825194783535	554
1	5010	408032.979489723247	555
1	5017	408722.054863069233	556
1	5026	409682.489095302326	557
1	5035	410265.967167075751	558
1	5048	411323.983105737743	559
1	5057	411956.203973712427	560
1	5062	412673.692273115767	561
1	5071	413177.370584383634	562
1	5080	413575.94900303523	563
1	5089	414233.34778617139	564
1	5100	415057.825052412255	565
1	5111	416093.553865933819	566
1	5118	416683.100146567477	567
1	5129	417405.650765681667	568
1	5136	418149.115513404859	569
1	5143	418622.316999826608	570
1	5152	419474.674616474686	571
1	5161	420331.919930828763	572
1	5174	421493.015489168492	573
1	5181	422013.201108947423	574
1	5188	422349.204572942135	575
1	5193	423080.364514142302	576
1	5206	424304.674591496614	577
1	5215	425186.288409540457	578
1	5228	426246.369906049249	579
1	5235	426856.597044831169	580
1	5242	427630.68136386576	581
1	5255	428550.907215708894	582
1	5264	429303.381055500386	583
1	5273	430168.091689283056	584
1	5280	430616.397071164129	585
1	5283	430923.801732016755	586
1	5300	432383.41612620282	587
1	5305	432875.722840055851	588
1	5318	433799.292129976703	589
1	5327	434598.057541530607	590
1	5334	435017.035838635666	591
1	5341	435547.443299135221	592
1	5354	436670.415329793496	593
1	5363	437545.536259794636	594
1	5368	438209.98510820794	595
1	5377	438651.181769790156	596
1	5388	439659.955294104321	597
1	5397	440181.499967258452	598
1	5406	440881.772273127018	599
1	5413	441459.971912205248	600
1	5424	442305.121114617242	601
1	5431	442686.710188770695	602
1	5444	444126.331748580589	603
1	5451	444562.432854110404	604
1	5460	445391.9832190499	605
1	5467	446182.181734778016	606
1	5480	447212.897143000766	607
1	5487	447743.87550400573	608
1	5494	448212.271672999515	609
1	5505	449123.303974187031	610
1	5514	450053.175800945639	611
1	5523	450693.093723803788	612
1	5530	451025.280324183434	613
1	5535	451532.457656180515	614
1	5550	452753.648258792266	615
1	5553	453079.560521431297	616
1	5570	454617.920780321614	617
1	5575	455053.026810754121	618
1	5584	455574.968358501823	619
1	5593	456141.414821008251	620
1	5604	457277.185633499206	621
1	5613	457988.336540479243	622
1	5620	458302.14032381776	623
1	5631	459375.163413304867	624
1	5640	460081.287410622494	625
1	5651	460824.124377267467	626
1	5658	461256.319261668282	627
1	5667	462319.729333743485	628
1	5676	462857.05745466988	629
1	5685	463548.463169485363	630
1	5692	463968.980651395428	631
1	5701	464608.338575391132	632
1	5712	465615.660316078025	633
1	5723	466492.662728531319	634
1	5732	467085.770188830826	635
1	5739	467688.140097772736	636
1	5746	468144.538450241122	637
1	5759	469173.047492047805	638
1	5764	469653.086574235964	639
1	5777	470560.934887966174	640
1	5786	471304.658490093458	641
1	5793	472049.326777691055	642
1	5802	472737.30471977036	643
1	5809	473405.574133386868	644
1	5818	474183.605400100383	645
1	5827	474799.573915405232	646
1	5836	475605.596589669617	647
1	5845	476131.085905618997	648
1	5854	476736.46235377531	649
1	5865	477873.838097602161	650
1	5876	478626.314737228709	651
1	5885	479456.89340522516	652
1	5892	480026.13962008621	653
1	5899	480614.764354191752	654
1	5908	481546.011374658006	655
1	5921	482407.416071556541	656
1	5926	482718.47982821058	657
1	5939	484000.112346187266	658
1	5944	484384.514777641776	659
1	5957	485430.033030035006	660
1	5966	486311.913429899173	661
1	5975	487116.794514935496	662
1	5982	487700.952451257068	663
1	5989	488199.79421636093	664
1	6000	488937.662304611909	665
1	6011	489678.162089735302	666
1	6016	490174.623493524301	667
1	6025	490845.374790346283	668
1	6038	491936.771963629904	669
1	6045	492696.645286213639	670
1	6054	493123.746375180814	671
1	6061	493794.59391315471	672
1	6074	494773.376569803837	673
1	6083	495631.091957353088	674
1	6088	496218.494393304023	675
1	6097	496915.510777942869	676
1	6108	497916.049387212876	677
1	6115	498321.102557564188	678
1	6124	499095.326188020442	679
1	6133	499578.571607871015	680
1	6142	500139.089402183924	681
1	6151	500790.425501111929	682
1	6160	501778.470740513909	683
1	6171	502878.164839977432	684
1	6180	503351.911726500873	685
1	6191	504255.231002345715	686
1	6200	505114.081451157142	687
1	6209	505825.236375024576	688
1	6218	506671.749688312445	689
1	6225	507519.573432812501	690
1	6236	508280.404185829718	691
1	6245	509110.13800632212	692
1	6250	509487.669413723086	693
1	6261	510144.878930551966	694
1	6270	510991.426436137443	695
1	6279	511731.235592253541	696
1	6286	512176.906668953632	697
1	6291	512611.291526863386	698
1	6304	513725.83229807209	699
1	6313	514352.669752948021	700
1	6324	514977.762259589543	701
1	6331	515568.051230907475	702
1	6340	516679.605425382068	703
1	6349	517593.757372722065	704
1	6362	518599.205490946804	705
1	6367	518945.800356147845	706
1	6380	520145.764574501698	707
1	6389	520911.393889971112	708
1	6394	521457.431438891252	709
1	6403	521995.254329592024	710
1	6412	522891.031032102218	711
1	6421	523836.41606625173	712
1	6432	524824.225723324378	713
1	6443	525395.143781695549	714
1	6448	526076.398118957911	715
1	6459	526725.757780484889	716
1	6468	527493.820642679964	717
1	6479	528253.267480200191	718
1	6484	528672.362683340942	719
1	6497	530002.734015975182	720
1	6502	530350.301079265808	721
1	6511	531417.339618131553	722
1	6520	532347.347322944587	723
1	6531	533090.230417577585	724
1	6542	533750.504322862288	725
1	6551	534543.375661689824	726
1	6558	535167.087822686917	727
1	6569	535979.792434349692	728
1	6578	536789.28254563365	729
1	6587	537505.211780313438	730
1	6594	538153.844932979008	731
1	6601	538497.650981554797	732
1	6610	539539.79273177687	733
1	6621	540436.597981117701	734
1	6632	541134.23250583004	735
1	6639	541837.539436994156	736
1	6648	542734.109731949901	737
1	6659	543558.057012548706	738
1	6668	544363.595406571439	739
1	6677	545161.314257187805	740
1	6684	545832.838864624537	741
1	6691	546448.448722483626	742
1	6704	547300.886756507716	743
1	6709	547670.43992830444	744
1	6718	548376.819730969182	745
1	6731	549363.522264780513	746
1	6738	549846.250224206633	747
1	6745	550470.008728466964	748
1	6754	550936.476960824839	749
1	6765	552050.942496769166	750
1	6774	552842.236206354609	751
1	6785	553622.867272747716	752
1	6794	554210.821171430906	753
1	6801	555027.274424443057	754
1	6812	555763.462953642046	755
1	6817	556079.383626300877	756
1	6828	557132.770907739213	757
1	6835	557663.338774675539	758
1	6844	558675.296867731994	759
1	6857	559807.383074518329	760
1	6862	560301.267137937284	761
1	6871	560901.248000096566	762
1	6884	561591.84683533389	763
1	6891	561916.537009784988	764
1	6898	562804.566773772276	765
1	6909	563698.469416424669	766
1	6916	564102.688373252786	767
1	6925	565418.488707952239	768
1	6934	565941.180345229842	769
1	6945	567023.838146589735	770
1	6952	567463.908304972613	771
1	6961	568074.737852532455	772
1	6970	568540.565126901531	773
1	6981	569464.265836961606	774
1	6990	570343.197652744168	775
1	6997	570836.54954060916	776
1	7010	572078.959451336452	777
1	7019	572964.6583842114	778
1	7028	573839.861229714045	779
1	7035	574488.784186262676	780
1	7044	575253.643072396556	781
1	7051	575578.227526601443	782
1	7062	576108.293475536668	783
1	7069	577010.964618762994	784
1	7080	577588.540772348681	785
1	7083	577924.72182009373	786
1	7096	579034.302315954158	787
1	7109	579970.430422900284	788
1	7118	580687.46352950115	789
1	7125	581112.904071109409	790
1	7132	581545.531715126748	791
1	7141	582202.505605900701	792
1	7152	582985.038782889063	793
1	7159	583726.843096129635	794
1	7168	584198.576333513522	795
1	7181	585153.977185953448	796
1	7190	586050.949456449638	797
1	7197	586634.933519968803	798
1	7204	587254.62302849632	799
1	7215	587949.689510744105	800
1	7226	588818.324549635912	801
1	7233	589638.372351508627	802
1	7242	590223.221334256271	803
1	7251	591270.652716374064	804
1	7260	591752.883819490711	805
1	7269	592678.498384868766	806
1	7276	593157.656943239312	807
1	7287	594047.118301922496	808
1	7294	594508.575473818969	809
1	7303	595185.739105241414	810
1	7316	596366.554416809271	811
1	7321	596741.965367971028	812
1	7334	598038.722571451257	813
1	7343	598690.753318369429	814
1	7348	599432.855117507319	815
1	7359	600081.471768161323	816
1	7368	600826.819742191624	817
1	7375	601278.332616481971	818
1	7384	602084.750217804726	819
1	7397	603191.205266676885	820
1	7402	603684.304945170921	821
1	7411	604644.060802040664	822

