version 2
run Pipelined_3Teachers-74-20190105-10:57:34-1144
attr configname Pipelined_3Teachers
attr datetime 20190105-10:57:34
attr experiment Pipelined_3Teachers
attr inifile ../simulations/omnetpp.ini
attr iterationvars "$0=\"uniform\""
attr iterationvarsf uniform-
attr measurement "$0=\"uniform\""
attr network PipelinedExamSession
attr processid 1144
attr repetition 74
attr replication #74
attr resultdir results
attr runnumber 74
attr seedset 74
param **.teachersNumber 3
param **.answerTimeDistribution "\"uniform\""
param **.minUniform 300
param **.maxUniform 900
param **.scaleLognormal 6.2854
param **.shapeLognormal 0.4724

vector 0 PipelinedExamSession examinationTime:vector ETV
attr source examFinished
vector 1 PipelinedExamSession studentID:vector ETV
attr source student
0	3149	260349.134214827813	2242.9628294427
0	3154	260768.076284090079	1919.8945800774
0	3163	261130.195838352687	1423.4464498702
0	3176	262312.362217577196	1963.2280027494
0	3183	263178.004779852948	2196.8313376419
0	3192	263574.566555069781	2139.9843078107
0	3199	264282.455361401684	1970.0931438245
0	3208	264941.857657721288	1737.3781333677
0	3219	265902.133709052599	1931.3743868843
0	3226	266389.368682215012	1953.3328689169
0	3235	267368.297479581109	2130.5403503124
0	3248	268374.620424723274	2428.710436821
0	3253	268923.330115014709	2165.5556484126
0	3262	269613.918612431757	2036.1535767093
0	3271	270227.919441321886	1853.2990165986
0	3280	271091.188815934605	1850.2363940701
0	3289	271853.228012798376	1911.5988698322
0	3298	272223.619334958515	1530.8076088317
0	3307	273285.25494541975	1926.7692165915
0	3318	274088.412476191318	2036.2073390745
0	3325	274456.218910636401	1560.1329227909
0	3338	275755.273712798974	2038.2463711314
0	3345	276153.628593357301	1773.6468711868
0	3356	277023.986681923292	1755.0117968582
0	3365	277812.429273873589	2057.1555610746
0	3374	278583.885633246995	2378.2116539776
0	3379	279151.592431822814	2127.6057498995
0	3390	280154.999851668276	2342.5705777947
0	3401	281047.792252013482	2463.9066187665
0	3406	281427.433714130916	2038.4630779736
0	3419	282760.947561683155	2604.9501625355
0	3426	283471.613311953864	2423.8210599404
0	3435	284177.29527144695	2266.5354712866
0	3446	285077.105948980919	2316.1583872978
0	3451	285709.567673318109	2123.8247158471
0	3464	286683.004231983817	2382.6798263937
0	3469	287034.008136950455	1956.9021879695
0	3480	287989.852306013949	2033.078068262
0	3487	288365.368843730561	1682.3646117467
0	3496	289433.789655938766	2035.3142227046
0	3507	290253.739300137407	2060.7055556495
0	3514	290739.462017454228	1775.9387075901
0	3523	291130.334760854042	1546.428692434
0	3534	292090.539164654932	1652.5479323231
0	3545	292738.172869244613	1914.3773011398
0	3554	293568.916115490742	2072.2316389438
0	3563	294202.082607010402	2064.1389122698
0	3570	294570.15375341291	1831.9808841683
0	3577	294974.797047860943	1405.8809323702
0	3586	295802.243352262327	1600.1607452519
0	3595	296529.538675351092	1843.8645728398
0	3604	297440.890667354712	1889.8127480876
0	3617	298604.492288036295	2209.9300189409
0	3622	299376.32522187198	2354.8300048336
0	3633	300030.48210712152	2164.4211152103
0	3642	300851.668331399583	2247.1760433633
0	3653	301752.220394136406	2267.915327847
0	3660	302489.138606982328	2225.9217976592
0	3669	303165.971626248232	2005.6427983101
0	3676	303685.301614366493	1933.0812202301
0	3689	304748.619517078646	2099.8336622491
0	3694	305116.682109609269	1774.1795267444
0	3703	306129.319488722854	2030.4777435958
0	3712	306841.250311117642	2092.630794039
0	3725	307901.82792968119	2272.2861243412
0	3732	308310.438714455836	1786.9217141066
0	3743	308985.322516132169	1752.1048556082
0	3748	309422.96151746998	1521.1335877888
0	3761	310667.221452249237	2349.3778819218
0	3768	311063.247787160822	2077.9252710287
0	3775	312060.69523924964	2269.3468420766
0	3784	312541.32355526092	1874.1021030117
0	3795	313513.930337084481	1993.5007982422
0	3802	314268.723523244286	1931.7275659181
0	3813	315229.776508267991	2185.164436698
0	3822	315788.007868453882	2177.3699145298
0	3833	316650.673088058852	2258.3410214167
0	3840	317344.496410712623	2085.2400537115
0	3849	318029.104507807665	2237.2689679731
0	3860	318905.33628095875	2254.6631928999
0	3865	319275.874408520781	1853.7707364187
0	3878	320178.217183984839	2000.6369973533
0	3885	320608.392316242703	1703.056035284
0	3892	321177.228362951451	1543.6443025712
0	3903	322138.186305435398	1959.9691214506
0	3912	322903.129078075314	2080.5776608642
0	3923	323961.12239453944	2617.138440907
0	3930	324674.74356181922	2470.5771387555
0	3939	325417.541574127996	2332.6501204167
0	3946	325933.20079618136	1972.0784016419
0	3955	326401.903729140782	1696.1124173831
0	3964	327318.382552871505	1791.4410806727
0	3973	327802.391927596206	1815.2377290186
0	3986	329097.043843567396	2566.6711931583
0	3995	329989.704915555219	2563.4396118578
0	4002	330572.126111341665	2303.9970042184
0	4009	331222.376384725819	2125.3325411584
0	4018	331796.091991849269	1806.3870762941
0	4027	332869.042960787217	2058.9929934125
0	4036	333707.698755059417	2004.732966749
0	4047	334732.408544048692	2263.6310877744
0	4056	335496.714938292305	2310.4633115698
0	4063	336000.297659542437	2078.145149583
0	4076	337104.413510346811	2344.4448861759
0	4083	337833.591272821676	2243.3260023594
0	4090	338311.693651881095	1941.0763656255
0	4099	339113.77215874384	2009.358648397
0	4108	339621.386514510985	1766.7725638021
0	4119	340960.191678721483	2532.9045665916
0	4128	341646.062938962157	2384.2529837508
0	4139	342279.942804761258	2119.8581093922
0	4144	342712.42212806831	1677.4476549122
0	4153	343457.24445856179	1710.8063345309
0	4166	344258.143295813379	1978.2004910521
0	4173	344770.756350830224	1778.921799548
0	4182	345584.261609846753	1758.7774656247
0	4189	346209.571878891465	1951.4285830781
0	4200	347118.717434490127	2007.5111660175
0	4209	347812.522028340054	2166.2573887501
0	4218	348565.025359718156	2028.4854526632
0	4227	349359.932786319432	2170.9053317551
0	4234	349832.80995301905	1809.7387431655
0	4243	350794.587069796426	2122.7509901393
0	4252	351562.076857918901	2122.7056275588
0	4265	352345.596671244157	2047.8459130973
0	4274	353197.25624551068	2134.5458771568
0	4283	354029.973671771613	2387.0770408306
0	4288	354356.650970410583	2011.0542991664
0	4297	355148.154585901675	1950.898340391
0	4310	356060.159465018687	2030.1857932471
0	4319	356888.927411427749	2051.997285476
0	4326	357553.464749408914	2236.3637966104
0	4337	358325.126579543604	2264.9671145249
0	4346	359108.591676922543	2219.6642654948
0	4353	359750.228066090522	2152.9469238594
0	4362	360363.246545149042	2038.1199656054
0	4371	361256.536619458376	2147.9449425358
0	4380	361722.936188522755	1933.8731030468
0	4389	362343.777956301376	1903.3509874251
0	4400	363232.336316630274	1915.6115880702
0	4409	363865.091091021925	2095.5468223896
0	4414	364213.845894159779	1858.9852633886
0	4427	365196.242454182387	1963.9061375521
0	4436	366065.853621019081	2200.7625299972
0	4441	366506.578881433264	1983.1282902975
0	4452	367388.231707597182	2191.9892534148
0	4463	368295.205692155317	2229.3520711362
0	4468	368625.160621013523	1921.8549580313
0	4479	369584.815633948922	2070.3211446293
0	4486	369967.900981055602	1672.6952889003
0	4495	370888.259503757612	1968.585779937
0	4504	371370.135474577577	1585.3159653023
0	4517	372580.358785903112	1995.6901784521
0	4524	373242.827410111235	2140.7664926257
0	4531	373808.980412548439	2041.6699509602
0	4540	374655.548994010345	2075.1902081072
0	4551	375860.312617057966	2433.4453149699
0	4560	376446.890188660504	2154.4369386043
0	4571	377430.705222068386	2308.1917036325
0	4576	377775.86333686489	1783.9746959042
0	4589	378703.689885931122	1851.3465102296
0	4596	379226.122054131734	1795.4168320633
0	4603	380170.031428663092	2167.4791063182
0	4616	381210.875720763611	2507.1858348325
0	4623	381833.259846456381	2345.4321297817
0	4632	382420.686788996714	2044.5991836023
0	4643	383524.4606831577	2313.5849623941
0	4648	383911.540749063748	1955.3124013357
0	4661	384624.41605604257	1963.1456195377
0	4666	384942.809697054359	1418.3490138967
0	4677	386093.386982381377	2123.0414251797
0	4684	386468.214052682776	1843.7979966402
0	4693	387077.563437726381	1688.0167386029
0	4704	388259.027228225055	2044.0510781016
0	4711	388904.806653689625	2107.2678790893
0	4724	390012.011355115133	2417.2676032875
0	4731	390584.729658812317	2142.1382518485
0	4740	391512.782801175523	2276.6479094513
0	4749	392046.596150100264	2034.5847949851
0	4756	392476.971443183753	1761.9699171279
0	4769	393634.604853903907	2086.0966323875
0	4774	394000.022158166426	1899.2760165129
0	4783	394979.473652550983	2103.03404429
0	4794	395904.752870975095	2270.1480170712
0	4803	396678.622090956229	2224.7868079226
0	4810	397379.645921895314	2218.3853130788
0	4821	397934.827697882462	1929.0511792526
0	4832	398663.112722011317	1880.4340469185
0	4839	399149.590971227769	1660.8157783281
0	4846	399954.217609902878	1926.9955904223
0	4859	400980.101949395645	2316.9892273843
0	4868	401709.292398160357	2277.4934780784
0	4877	402437.724623596329	2295.8071821369
0	4886	403140.116674779016	2160.0147253834
0	4891	403588.8723467477	1879.5799485873
0	4900	404395.484371064264	1957.7597474679
0	4909	405145.683804200995	2005.567129422
0	4918	405766.969838272813	1788.3688889444
0	4929	406700.358463777262	1894.8344717268
0	4936	407585.402704076874	2029.5352893881
0	4949	408514.350010547819	2215.6599334907
0	4958	409165.632413607123	2126.2798194308
0	4965	410007.342679565805	2272.3354306072
0	4976	410736.167204612899	2221.8171940651
0	4985	411472.080451156977	2306.4480375499
0	4992	412044.184106821227	1996.5124779381
0	5001	412517.612146586212	1781.4449419733
0	5012	413176.372331008348	1704.2918798514
0	5019	413867.478612950105	1773.2095195446
0	5026	414171.5291028377	1651.8988173455
0	5037	415478.072106605429	2301.6997755971
0	5046	416205.543280066956	2172.0736605115
0	5057	416941.659199912135	2216.2197110709
0	5064	417401.698874076862	1866.0759876017
0	5073	418274.728963058476	1964.1742299311
0	5080	419069.683845480938	2128.0246455688
0	5093	420176.187627576326	2446.7923410237
0	5102	420990.999227995087	2373.7667174544
0	5109	421774.949693027918	2399.6342053637
0	5116	422106.303375866298	1930.11574829
0	5127	423019.726628204843	2028.7274002098
0	5134	423481.562015321141	1650.8277334739
0	5145	424125.99610285837	1501.1646400206
0	5156	425291.923335241189	2228.6870165728
0	5165	426106.74089477401	2399.0865503903
0	5172	426641.114475717803	2208.2329046912
0	5183	427639.563961839339	2347.6406265981
0	5190	428303.50311719816	2196.7622224241
0	5201	429154.907592851704	2313.958625542
0	5210	430021.405211649871	2381.8412498105
0	5217	430632.024438120461	2292.4359799828
0	5226	431481.167546147517	2326.2599532958
0	5237	432500.876389956138	2479.4711783063
0	5244	433062.8239042126	2299.6677012183
0	5253	433812.305909860915	2167.9373205174
0	5262	434407.549121836236	1906.6727318801
0	5269	434910.75522517789	1822.8830120992
0	5280	435586.1284123734	1766.9233915396
0	5289	436433.950671600214	1974.7428196482
0	5296	436884.735386213324	1770.3244396951
0	5307	437906.968257436565	1917.0018921141
0	5316	438695.100917760318	2151.7051594332
0	5323	439141.462486842682	1894.4955202751
0	5336	440581.377320364154	2470.4323677812
0	5345	441431.623233854807	2492.8524975199
0	5350	442035.711476113684	2212.9624347668
0	5359	442610.375376557968	2028.9980561938
0	5368	443334.891534782983	1903.2683009282
0	5377	444013.928649108893	1706.8352714181
0	5388	444713.674297230355	1932.9496964347
0	5399	445604.199719661883	1930.9591330122
0	5408	446084.027691185511	1697.5674564019
0	5413	446420.129691576622	1700.3663779702
0	5422	447332.436846988312	1728.2371273264
0	5433	448173.199764126949	2089.1720729414
0	5444	449081.413580942936	2316.4051950909
0	5449	449844.992709718682	2404.2794408742
0	5462	450835.140597308092	2634.5663130283
0	5471	451590.120075456836	2508.7064945139
0	5476	451963.498241035306	2018.0052596144
0	5489	453031.078796228432	2195.9381989203
0	5498	453816.605525510424	2226.4854500536
0	5507	454618.288000300565	2413.8485962059
0	5514	455243.482163082847	2212.4033668544
0	5525	455966.334442840927	2149.7289173305
0	5534	456837.179550994226	2218.8915506937
0	5539	457301.59548036758	1941.5905239992
0	5552	458544.819425605276	2578.4849827643
0	5557	458990.513802040407	2153.3342510462
0	5568	459788.056648056993	2130.4376833141
0	5577	460906.999910809139	2362.1804852039
0	5584	461387.808903073932	2015.0928243063
0	5597	462337.95273299333	2122.3859638441
0	5602	462733.755186293314	1690.6264111865
0	5611	463081.453952332998	1480.0733909011
0	5620	464061.90234948885	1723.9496164955
0	5629	465052.479920676018	2156.9811672438
0	5640	465929.75284298886	2264.0863892622
0	5647	466378.386229695793	1820.9867093246
0	5656	467316.131555568468	1864.0315121971
0	5669	468799.851900246037	2501.8461530562
0	5676	469606.94495206703	2416.1900727544
0	5685	470153.984907036689	2205.2893271204
0	5696	470791.525485785721	1991.6735855397
0	5703	471616.935271164445	1961.3274008967
0	5712	471995.691016456155	1759.639215935
0	5723	472809.426989592655	2017.9015038069
0	5732	473536.748869065239	1891.1141394172
0	5739	474010.477176960601	1773.8693922758
0	5746	474568.214481370567	1758.7874917779
0	5755	475249.077495653226	1712.328626588
0	5764	476002.888312703042	1845.8752934821
0	5775	477077.017218293666	2033.7360292207
0	5782	477585.098703531592	2039.6279631648
0	5791	477986.051642848223	1582.6964744367
0	5802	478859.020980354443	1699.0873462055
0	5811	479960.10166537021	2296.8028253876
0	5820	480341.152122197716	1812.4992710073
0	5829	481096.882605180188	1915.360274585
0	5840	481935.547584900676	1962.6483181491
0	5847	482479.790897900282	2032.4551292695
0	5854	482951.879033166959	1785.9374381136
0	5865	484002.31971368198	2066.7721287813
0	5874	484746.132430387705	1919.3728056271
0	5881	485323.329853825315	1811.9266875554
0	5892	486606.767534650907	2472.2448635381
0	5901	487172.955210646659	2247.1327888314
0	5908	487535.303257266104	1721.3142947294
0	5921	488707.85186667931	2020.3530668747
0	5928	489522.632913384631	2336.1700095702
0	5937	490153.950194316029	2275.7123455871
0	5944	490683.713435847356	1975.861569168
0	5955	491982.964895339727	2400.4304413218
0	5964	492579.971294850156	2208.4808348212
0	5973	493283.824672456875	2042.3247161787
0	5984	493913.561015948697	1901.6761306208
0	5993	494757.119199028282	2074.166228855
0	6000	495346.944609051614	1944.4762859959
0	6011	496163.569105602845	2250.0080896541
0	6018	496689.895605621904	1932.7764065936
0	6025	497207.522961823314	1703.7108717486
0	6034	497740.681466879367	1577.1123612765
0	6047	499018.289484037129	2227.2035800852
0	6052	499326.623327052263	1824.1185417864
0	6061	500095.945842471016	1849.4150709361
0	6074	501191.547460248737	2173.2579762116
0	6079	501587.191466661213	1683.8399722707
0	6088	502413.952913275032	1934.2338174116
0	6097	503200.629584211899	2009.0821239632
0	6106	503779.735972685783	1758.8295784313
0	6115	504526.439199037893	1635.175170796
0	6124	505320.911305211528	1946.0746594705
0	6137	506363.469023443803	2209.7108082846
0	6144	506760.815252596557	2032.6656698249
0	6151	507280.962784169286	1788.8154665474
0	6160	507893.128037732139	1529.6590142883
0	6169	508558.803491899788	1543.822621135
0	6178	509098.844501003668	1667.2014207579
0	6187	509969.388076476798	1772.6983839646
0	6200	510834.899369068488	2056.0911281034
0	6207	511398.726708535149	1875.499618426
0	6214	512106.357133341997	2047.9068527464
0	6225	512984.639267111242	2149.7398980428
0	6232	513394.09982990478	1765.9569805954
0	6241	514390.770703554199	2047.5176260807
0	6250	514984.637900255665	1776.2904162984
0	6259	515899.068365804896	1846.6324447654
0	6272	517189.443510677711	2247.5540544838
0	6281	517969.976202724547	2174.0648722742
0	6288	518569.231643574358	1948.6422650982
0	6295	519189.699153369338	2000.2556426916
0	6304	519806.844664737628	1836.8684620131
0	6317	520951.289123715878	2159.7044966184
0	6326	521330.31727680941	1858.6419469211
0	6335	521921.465707942889	1805.1755786408
0	6340	522513.601318141491	1562.3121944256
0	6349	522991.613651393027	1661.2963745836
0	6358	523750.94722216022	1829.4815142173
0	6369	524670.936863170982	1964.354822645
0	6380	525501.544262375728	2115.4812114313
0	6385	525868.827473418833	1621.5595213696
0	6394	526425.552915874914	1497.505123727
0	6405	527777.350041456566	2275.8057790808
0	6412	528380.534271849365	2023.8304262515
0	6423	529160.269850492523	1930.6158535648
0	6430	529549.937583832116	1491.5445189457
0	6441	530247.228974243672	1461.6166041233
0	6448	531026.840671710716	1854.6964655165
0	6459	531896.643149061174	2196.7169320676
0	6468	532523.350638058082	1972.1865775064
0	6477	533089.899557596118	1834.3896608334
0	6486	533712.362267123581	1747.5345308427
0	6493	534336.897235550032	1753.0040108599
0	6502	535094.368768902542	1925.1198540442
0	6511	535805.619946215348	1818.0234323256
0	6522	536801.897293422418	2348.0482156388
0	6531	537307.221937598708	1985.0847614463
0	6542	538028.731679823296	2025.0300936867
0	6547	538395.702579058753	1574.0097859874
0	6556	539241.465092729823	1704.3518261053
0	6565	540047.201850637841	2018.4701708145
0	6576	541156.84493333106	2275.4047775175
0	6583	541650.017677294138	2104.0098547004
0	6592	542214.384574675979	1812.4687508214
0	6605	543481.523036537739	2273.6888558138
0	6614	544214.450381510007	2250.3230332397
0	6621	544788.353697722825	1986.6488906555
0	6628	545258.853773167404	1777.3307366297
0	6637	545902.86937030037	1688.4189887904
0	6648	546803.432188695344	2011.018307833
0	6655	547127.974875317934	1623.7080614548
0	6668	548262.936694594148	2081.7375599407
0	6673	548650.927495770204	1643.1138709188
0	6684	549645.219188416425	2104.1274272371
0	6693	550498.221954563681	2235.2852599695
0	6700	550922.500276006807	1885.9666777309
0	6709	552139.891838422093	2274.7111275326
0	6718	552608.401496848139	1891.9494347647
0	6727	553111.865718802485	1681.2846348155
0	6736	554031.715364987078	1782.0579094347
0	6749	555118.326573260177	2110.7729669195
0	6756	555599.711958132733	1890.6303359661
0	6763	556382.167171686936	1962.1276692487
0	6772	556745.3695559409	1627.0429826807
0	6785	557491.360089043204	1859.5176060218
0	6792	557910.17666668636	1477.5725414045
0	6801	558575.417664041791	1617.5143914297
0	6812	559426.799654401887	1935.4395653587
0	6817	559795.379910478417	1751.025408553
0	6830	560882.371913502041	2247.6723876782
0	6837	561543.636308284525	2116.8366538826
0	6846	562338.176238723148	2195.6774013117
0	6853	562819.114134740133	1936.7422212381
0	6862	563478.888813033748	1757.868896937
0	6871	563909.067739080686	1531.620765198
0	6884	565606.366620026577	2583.49209507
0	6893	566350.631621014375	2518.0792611558
0	6898	566717.336906539324	2005.4409164004
0	6907	567531.233628792737	1924.8670087662
0	6920	568729.444071231459	2378.8124502171
0	6925	569216.202201833998	2190.9939974081
0	6938	570010.216832952623	2174.1600714158
0	6947	570729.295288911138	1999.8512176797
0	6954	571185.200409125585	1678.643747326
0	6963	572149.62709788238	2139.4102649298
0	6970	572534.197327354973	1804.9020384438
0	6981	573289.182279026185	1944.2881749943
0	6990	573914.258352387746	1711.4875466097
0	6997	574352.674711681952	1593.0112094153
0	7010	575446.605326794138	1997.3083464894
0	7015	575944.428374385511	1966.3235007785
0	7028	576798.35568247368	2246.5777337551
0	7035	577301.8081511837	1855.2028243896
0	7042	577979.737069923481	1814.9775115773
0	7051	578466.312841326049	1667.9571588524
0	7056	578840.937204659037	1320.882148901
0	7071	579929.794871527753	1829.3578231707
0	7080	581217.797647509775	2314.9151346646
0	7087	581556.869231443903	1976.5780650079
0	7096	582207.638337928853	1830.9662373271
0	7105	583301.210877159662	2031.8512412254
0	7116	584355.092225829191	2253.4335301258
0	7125	584969.314474286564	1972.3236149177
0	7132	585287.7644041088	1474.8006762005
0	7143	586267.893897229858	1887.9760213662
0	7150	587028.895311942377	1782.04638795
0	7159	587804.07212879514	1909.0742274653
0	7168	588416.866235900723	1895.3908544965
0	7177	589322.074843850039	1973.2256191783
0	7186	590571.908229030721	2334.5276027452
0	7197	591377.083004638605	2271.4119361248
0	7204	591694.52958069747	1832.6794501394
0	7215	592682.648901315459	2013.2944710553
0	7226	593738.923987839424	2350.2751406282
0	7233	594238.177029183188	2207.5265604537
0	7240	594815.888497140312	1971.9368801918
0	7249	595587.928572949075	1849.0045851097
0	7262	596830.736347753608	2448.7788010854
0	7271	597450.693281600305	2301.7920125742
0	7276	597800.636434508541	1805.4446134251
0	7285	598783.840954117531	1953.1046063639
0	7298	599753.422730136717	2302.7294485364
0	7307	600249.710080493296	1904.1769345757
0	7314	600916.231415513957	1834.2353888322
0	7323	601721.590434573645	1968.1677044369
0	7332	602428.830337151939	2179.1202566586
0	7339	602742.249808833057	1695.1175096445
0	7350	604220.929185161422	2420.608452335
1	3149	260349.134214827813	348
1	3154	260768.076284090079	349
1	3163	261130.195838352687	350
1	3176	262312.362217577196	351
1	3183	263178.004779852948	352
1	3192	263574.566555069781	353
1	3199	264282.455361401684	354
1	3208	264941.857657721288	355
1	3219	265902.133709052599	356
1	3226	266389.368682215012	357
1	3235	267368.297479581109	358
1	3248	268374.620424723274	359
1	3253	268923.330115014709	360
1	3262	269613.918612431757	361
1	3271	270227.919441321886	362
1	3280	271091.188815934605	363
1	3289	271853.228012798376	364
1	3298	272223.619334958515	365
1	3307	273285.25494541975	366
1	3318	274088.412476191318	367
1	3325	274456.218910636401	368
1	3338	275755.273712798974	369
1	3345	276153.628593357301	370
1	3356	277023.986681923292	371
1	3365	277812.429273873589	372
1	3374	278583.885633246995	373
1	3379	279151.592431822814	374
1	3390	280154.999851668276	375
1	3401	281047.792252013482	376
1	3406	281427.433714130916	377
1	3419	282760.947561683155	378
1	3426	283471.613311953864	379
1	3435	284177.29527144695	380
1	3446	285077.105948980919	381
1	3451	285709.567673318109	382
1	3464	286683.004231983817	383
1	3469	287034.008136950455	384
1	3480	287989.852306013949	385
1	3487	288365.368843730561	386
1	3496	289433.789655938766	387
1	3507	290253.739300137407	388
1	3514	290739.462017454228	389
1	3523	291130.334760854042	390
1	3534	292090.539164654932	391
1	3545	292738.172869244613	392
1	3554	293568.916115490742	393
1	3563	294202.082607010402	394
1	3570	294570.15375341291	395
1	3577	294974.797047860943	396
1	3586	295802.243352262327	397
1	3595	296529.538675351092	398
1	3604	297440.890667354712	399
1	3617	298604.492288036295	400
1	3622	299376.32522187198	401
1	3633	300030.48210712152	402
1	3642	300851.668331399583	403
1	3653	301752.220394136406	404
1	3660	302489.138606982328	405
1	3669	303165.971626248232	406
1	3676	303685.301614366493	407
1	3689	304748.619517078646	408
1	3694	305116.682109609269	409
1	3703	306129.319488722854	410
1	3712	306841.250311117642	411
1	3725	307901.82792968119	412
1	3732	308310.438714455836	413
1	3743	308985.322516132169	414
1	3748	309422.96151746998	415
1	3761	310667.221452249237	416
1	3768	311063.247787160822	417
1	3775	312060.69523924964	418
1	3784	312541.32355526092	419
1	3795	313513.930337084481	420
1	3802	314268.723523244286	421
1	3813	315229.776508267991	422
1	3822	315788.007868453882	423
1	3833	316650.673088058852	424
1	3840	317344.496410712623	425
1	3849	318029.104507807665	426
1	3860	318905.33628095875	427
1	3865	319275.874408520781	428
1	3878	320178.217183984839	429
1	3885	320608.392316242703	430
1	3892	321177.228362951451	431
1	3903	322138.186305435398	432
1	3912	322903.129078075314	433
1	3923	323961.12239453944	434
1	3930	324674.74356181922	435
1	3939	325417.541574127996	436
1	3946	325933.20079618136	437
1	3955	326401.903729140782	438
1	3964	327318.382552871505	439
1	3973	327802.391927596206	440
1	3986	329097.043843567396	441
1	3995	329989.704915555219	442
1	4002	330572.126111341665	443
1	4009	331222.376384725819	444
1	4018	331796.091991849269	445
1	4027	332869.042960787217	446
1	4036	333707.698755059417	447
1	4047	334732.408544048692	448
1	4056	335496.714938292305	449
1	4063	336000.297659542437	450
1	4076	337104.413510346811	451
1	4083	337833.591272821676	452
1	4090	338311.693651881095	453
1	4099	339113.77215874384	454
1	4108	339621.386514510985	455
1	4119	340960.191678721483	456
1	4128	341646.062938962157	457
1	4139	342279.942804761258	458
1	4144	342712.42212806831	459
1	4153	343457.24445856179	460
1	4166	344258.143295813379	461
1	4173	344770.756350830224	462
1	4182	345584.261609846753	463
1	4189	346209.571878891465	464
1	4200	347118.717434490127	465
1	4209	347812.522028340054	466
1	4218	348565.025359718156	467
1	4227	349359.932786319432	468
1	4234	349832.80995301905	469
1	4243	350794.587069796426	470
1	4252	351562.076857918901	471
1	4265	352345.596671244157	472
1	4274	353197.25624551068	473
1	4283	354029.973671771613	474
1	4288	354356.650970410583	475
1	4297	355148.154585901675	476
1	4310	356060.159465018687	477
1	4319	356888.927411427749	478
1	4326	357553.464749408914	479
1	4337	358325.126579543604	480
1	4346	359108.591676922543	481
1	4353	359750.228066090522	482
1	4362	360363.246545149042	483
1	4371	361256.536619458376	484
1	4380	361722.936188522755	485
1	4389	362343.777956301376	486
1	4400	363232.336316630274	487
1	4409	363865.091091021925	488
1	4414	364213.845894159779	489
1	4427	365196.242454182387	490
1	4436	366065.853621019081	491
1	4441	366506.578881433264	492
1	4452	367388.231707597182	493
1	4463	368295.205692155317	494
1	4468	368625.160621013523	495
1	4479	369584.815633948922	496
1	4486	369967.900981055602	497
1	4495	370888.259503757612	498
1	4504	371370.135474577577	499
1	4517	372580.358785903112	500
1	4524	373242.827410111235	501
1	4531	373808.980412548439	502
1	4540	374655.548994010345	503
1	4551	375860.312617057966	504
1	4560	376446.890188660504	505
1	4571	377430.705222068386	506
1	4576	377775.86333686489	507
1	4589	378703.689885931122	508
1	4596	379226.122054131734	509
1	4603	380170.031428663092	510
1	4616	381210.875720763611	511
1	4623	381833.259846456381	512
1	4632	382420.686788996714	513
1	4643	383524.4606831577	514
1	4648	383911.540749063748	515
1	4661	384624.41605604257	516
1	4666	384942.809697054359	517
1	4677	386093.386982381377	518
1	4684	386468.214052682776	519
1	4693	387077.563437726381	520
1	4704	388259.027228225055	521
1	4711	388904.806653689625	522
1	4724	390012.011355115133	523
1	4731	390584.729658812317	524
1	4740	391512.782801175523	525
1	4749	392046.596150100264	526
1	4756	392476.971443183753	527
1	4769	393634.604853903907	528
1	4774	394000.022158166426	529
1	4783	394979.473652550983	530
1	4794	395904.752870975095	531
1	4803	396678.622090956229	532
1	4810	397379.645921895314	533
1	4821	397934.827697882462	534
1	4832	398663.112722011317	535
1	4839	399149.590971227769	536
1	4846	399954.217609902878	537
1	4859	400980.101949395645	538
1	4868	401709.292398160357	539
1	4877	402437.724623596329	540
1	4886	403140.116674779016	541
1	4891	403588.8723467477	542
1	4900	404395.484371064264	543
1	4909	405145.683804200995	544
1	4918	405766.969838272813	545
1	4929	406700.358463777262	546
1	4936	407585.402704076874	547
1	4949	408514.350010547819	548
1	4958	409165.632413607123	549
1	4965	410007.342679565805	550
1	4976	410736.167204612899	551
1	4985	411472.080451156977	552
1	4992	412044.184106821227	553
1	5001	412517.612146586212	554
1	5012	413176.372331008348	555
1	5019	413867.478612950105	556
1	5026	414171.5291028377	557
1	5037	415478.072106605429	558
1	5046	416205.543280066956	559
1	5057	416941.659199912135	560
1	5064	417401.698874076862	561
1	5073	418274.728963058476	562
1	5080	419069.683845480938	563
1	5093	420176.187627576326	564
1	5102	420990.999227995087	565
1	5109	421774.949693027918	566
1	5116	422106.303375866298	567
1	5127	423019.726628204843	568
1	5134	423481.562015321141	569
1	5145	424125.99610285837	570
1	5156	425291.923335241189	571
1	5165	426106.74089477401	572
1	5172	426641.114475717803	573
1	5183	427639.563961839339	574
1	5190	428303.50311719816	575
1	5201	429154.907592851704	576
1	5210	430021.405211649871	577
1	5217	430632.024438120461	578
1	5226	431481.167546147517	579
1	5237	432500.876389956138	580
1	5244	433062.8239042126	581
1	5253	433812.305909860915	582
1	5262	434407.549121836236	583
1	5269	434910.75522517789	584
1	5280	435586.1284123734	585
1	5289	436433.950671600214	586
1	5296	436884.735386213324	587
1	5307	437906.968257436565	588
1	5316	438695.100917760318	589
1	5323	439141.462486842682	590
1	5336	440581.377320364154	591
1	5345	441431.623233854807	592
1	5350	442035.711476113684	593
1	5359	442610.375376557968	594
1	5368	443334.891534782983	595
1	5377	444013.928649108893	596
1	5388	444713.674297230355	597
1	5399	445604.199719661883	598
1	5408	446084.027691185511	599
1	5413	446420.129691576622	600
1	5422	447332.436846988312	601
1	5433	448173.199764126949	602
1	5444	449081.413580942936	603
1	5449	449844.992709718682	604
1	5462	450835.140597308092	605
1	5471	451590.120075456836	606
1	5476	451963.498241035306	607
1	5489	453031.078796228432	608
1	5498	453816.605525510424	609
1	5507	454618.288000300565	610
1	5514	455243.482163082847	611
1	5525	455966.334442840927	612
1	5534	456837.179550994226	613
1	5539	457301.59548036758	614
1	5552	458544.819425605276	615
1	5557	458990.513802040407	616
1	5568	459788.056648056993	617
1	5577	460906.999910809139	618
1	5584	461387.808903073932	619
1	5597	462337.95273299333	620
1	5602	462733.755186293314	621
1	5611	463081.453952332998	622
1	5620	464061.90234948885	623
1	5629	465052.479920676018	624
1	5640	465929.75284298886	625
1	5647	466378.386229695793	626
1	5656	467316.131555568468	627
1	5669	468799.851900246037	628
1	5676	469606.94495206703	629
1	5685	470153.984907036689	630
1	5696	470791.525485785721	631
1	5703	471616.935271164445	632
1	5712	471995.691016456155	633
1	5723	472809.426989592655	634
1	5732	473536.748869065239	635
1	5739	474010.477176960601	636
1	5746	474568.214481370567	637
1	5755	475249.077495653226	638
1	5764	476002.888312703042	639
1	5775	477077.017218293666	640
1	5782	477585.098703531592	641
1	5791	477986.051642848223	642
1	5802	478859.020980354443	643
1	5811	479960.10166537021	644
1	5820	480341.152122197716	645
1	5829	481096.882605180188	646
1	5840	481935.547584900676	647
1	5847	482479.790897900282	648
1	5854	482951.879033166959	649
1	5865	484002.31971368198	650
1	5874	484746.132430387705	651
1	5881	485323.329853825315	652
1	5892	486606.767534650907	653
1	5901	487172.955210646659	654
1	5908	487535.303257266104	655
1	5921	488707.85186667931	656
1	5928	489522.632913384631	657
1	5937	490153.950194316029	658
1	5944	490683.713435847356	659
1	5955	491982.964895339727	660
1	5964	492579.971294850156	661
1	5973	493283.824672456875	662
1	5984	493913.561015948697	663
1	5993	494757.119199028282	664
1	6000	495346.944609051614	665
1	6011	496163.569105602845	666
1	6018	496689.895605621904	667
1	6025	497207.522961823314	668
1	6034	497740.681466879367	669
1	6047	499018.289484037129	670
1	6052	499326.623327052263	671
1	6061	500095.945842471016	672
1	6074	501191.547460248737	673
1	6079	501587.191466661213	674
1	6088	502413.952913275032	675
1	6097	503200.629584211899	676
1	6106	503779.735972685783	677
1	6115	504526.439199037893	678
1	6124	505320.911305211528	679
1	6137	506363.469023443803	680
1	6144	506760.815252596557	681
1	6151	507280.962784169286	682
1	6160	507893.128037732139	683
1	6169	508558.803491899788	684
1	6178	509098.844501003668	685
1	6187	509969.388076476798	686
1	6200	510834.899369068488	687
1	6207	511398.726708535149	688
1	6214	512106.357133341997	689
1	6225	512984.639267111242	690
1	6232	513394.09982990478	691
1	6241	514390.770703554199	692
1	6250	514984.637900255665	693
1	6259	515899.068365804896	694
1	6272	517189.443510677711	695
1	6281	517969.976202724547	696
1	6288	518569.231643574358	697
1	6295	519189.699153369338	698
1	6304	519806.844664737628	699
1	6317	520951.289123715878	700
1	6326	521330.31727680941	701
1	6335	521921.465707942889	702
1	6340	522513.601318141491	703
1	6349	522991.613651393027	704
1	6358	523750.94722216022	705
1	6369	524670.936863170982	706
1	6380	525501.544262375728	707
1	6385	525868.827473418833	708
1	6394	526425.552915874914	709
1	6405	527777.350041456566	710
1	6412	528380.534271849365	711
1	6423	529160.269850492523	712
1	6430	529549.937583832116	713
1	6441	530247.228974243672	714
1	6448	531026.840671710716	715
1	6459	531896.643149061174	716
1	6468	532523.350638058082	717
1	6477	533089.899557596118	718
1	6486	533712.362267123581	719
1	6493	534336.897235550032	720
1	6502	535094.368768902542	721
1	6511	535805.619946215348	722
1	6522	536801.897293422418	723
1	6531	537307.221937598708	724
1	6542	538028.731679823296	725
1	6547	538395.702579058753	726
1	6556	539241.465092729823	727
1	6565	540047.201850637841	728
1	6576	541156.84493333106	729
1	6583	541650.017677294138	730
1	6592	542214.384574675979	731
1	6605	543481.523036537739	732
1	6614	544214.450381510007	733
1	6621	544788.353697722825	734
1	6628	545258.853773167404	735
1	6637	545902.86937030037	736
1	6648	546803.432188695344	737
1	6655	547127.974875317934	738
1	6668	548262.936694594148	739
1	6673	548650.927495770204	740
1	6684	549645.219188416425	741
1	6693	550498.221954563681	742
1	6700	550922.500276006807	743
1	6709	552139.891838422093	744
1	6718	552608.401496848139	745
1	6727	553111.865718802485	746
1	6736	554031.715364987078	747
1	6749	555118.326573260177	748
1	6756	555599.711958132733	749
1	6763	556382.167171686936	750
1	6772	556745.3695559409	751
1	6785	557491.360089043204	752
1	6792	557910.17666668636	753
1	6801	558575.417664041791	754
1	6812	559426.799654401887	755
1	6817	559795.379910478417	756
1	6830	560882.371913502041	757
1	6837	561543.636308284525	758
1	6846	562338.176238723148	759
1	6853	562819.114134740133	760
1	6862	563478.888813033748	761
1	6871	563909.067739080686	762
1	6884	565606.366620026577	763
1	6893	566350.631621014375	764
1	6898	566717.336906539324	765
1	6907	567531.233628792737	766
1	6920	568729.444071231459	767
1	6925	569216.202201833998	768
1	6938	570010.216832952623	769
1	6947	570729.295288911138	770
1	6954	571185.200409125585	771
1	6963	572149.62709788238	772
1	6970	572534.197327354973	773
1	6981	573289.182279026185	774
1	6990	573914.258352387746	775
1	6997	574352.674711681952	776
1	7010	575446.605326794138	777
1	7015	575944.428374385511	778
1	7028	576798.35568247368	779
1	7035	577301.8081511837	780
1	7042	577979.737069923481	781
1	7051	578466.312841326049	782
1	7056	578840.937204659037	783
1	7071	579929.794871527753	784
1	7080	581217.797647509775	785
1	7087	581556.869231443903	786
1	7096	582207.638337928853	787
1	7105	583301.210877159662	788
1	7116	584355.092225829191	789
1	7125	584969.314474286564	790
1	7132	585287.7644041088	791
1	7143	586267.893897229858	792
1	7150	587028.895311942377	793
1	7159	587804.07212879514	794
1	7168	588416.866235900723	795
1	7177	589322.074843850039	796
1	7186	590571.908229030721	797
1	7197	591377.083004638605	798
1	7204	591694.52958069747	799
1	7215	592682.648901315459	800
1	7226	593738.923987839424	801
1	7233	594238.177029183188	802
1	7240	594815.888497140312	803
1	7249	595587.928572949075	804
1	7262	596830.736347753608	805
1	7271	597450.693281600305	806
1	7276	597800.636434508541	807
1	7285	598783.840954117531	808
1	7298	599753.422730136717	809
1	7307	600249.710080493296	810
1	7314	600916.231415513957	811
1	7323	601721.590434573645	812
1	7332	602428.830337151939	813
1	7339	602742.249808833057	814
1	7350	604220.929185161422	815

