version 2
run Pipeline_7teachers-15-20181220-18:43:16-23836
attr configname Pipeline_7teachers
attr datetime 20181220-18:43:16
attr experiment Pipeline_7teachers
attr inifile omnetpp.ini
attr iterationvars "$0=\"lognormal\""
attr iterationvarsf lognormal-
attr measurement "$0=\"lognormal\""
attr network PipelinedExamSession
attr processid 23836
attr repetition 5
attr replication #5
attr resultdir results
attr runnumber 15
attr seedset 5
param **.teachersNumber 7
param **.answerTimeDistribution "\"lognormal\""
param **.minUniform 300
param **.maxUniform 1800
param **.scaleLognormal 6.8153
param **.shapeLognormal 0.5316

vector 0 PipelinedExamSession examinationTime:vector ETV
attr source examFinished
vector 1 PipelinedExamSession studentsWaitingTime:vector ETV
attr source waitingTime
vector 2 PipelinedExamSession teachersIdleTime:vector ETV
attr source idleTime
0	61	7687.286840534415	7687.2868405344
0	100	10183.71685386218	8884.4553756272
0	111	11625.511217555793	8783.7115610927
0	124	12732.270311237312	7744.405364003
0	155	16634.470371794368	10223.3980498
0	180	20822.115627176332	12300.472312402
0	223	24119.547813723205	14442.147323295
0	264	27773.01420263973	15252.526347625
0	285	28881.574710569793	15180.513582622
0	294	30168.373165310085	12543.132257159
0	325	32498.267651976077	11250.058599599
0	330	33694.46815029925	11121.225492971
0	373	36701.482789734062	12145.660076744
0	402	38624.798048747546	11847.777892809
0	415	39397.16302413868	10728.341225731
0	462	42718.345867956295	11512.819435913
0	485	43947.524844887675	9633.6897433505
0	518	46195.674854645193	10127.611804282
0	525	47078.520476653239	9723.729524419
0	564	50474.661593280586	11289.746521086
0	589	51823.791292928485	10184.651566918
0	604	53136.440320584002	10701.350752767
0	615	53697.888779998694	10388.330845607
0	652	56250.586265719943	10964.289624647
0	669	56888.547668348606	9733.023508313
0	716	60390.811762661283	10656.640897071
0	737	61170.663847781918	9877.0807885704
0	752	61765.546995491427	8307.05610343
0	797	67320.034538145786	12530.421966189
0	810	67727.193713060346	11327.474201569
0	843	69347.73981504634	11457.830613125
0	848	70107.156276597896	10343.467904001
0	887	73626.735875694543	12665.566931828
0	922	76164.163050018221	13739.845439664
0	945	77484.463959705961	14052.247522154
0	948	78464.238599680001	11144.204061534
0	973	80156.408809964752	11599.085040386
0	980	80937.112831330879	10344.106331689
0	1031	87002.920395379316	14221.086115698
0	1056	87865.328571425518	13611.670159654
0	1063	88496.566827334131	12332.403777316
0	1088	91009.480711018183	12505.41382518
0	1091	92397.961887756266	9530.9651218963
0	1148	95428.565514309411	10398.320768722
0	1169	98303.997173518163	11224.349399293
0	1190	99467.595935318733	10334.071834593
0	1233	102325.87677671249	9880.5022089399
0	1246	103819.475578189809	10257.906456622
0	1253	104724.213651588136	9924.4447702742
0	1298	108052.806601132616	11120.743206584
0	1339	110386.608386354205	10705.615276307
0	1352	111181.844405418506	9877.3236505001
0	1371	112380.280124427574	8687.3574237655
0	1414	115781.25547407126	10142.947386754
0	1423	116417.382925323666	8674.9341292762
0	1462	118550.113996308037	9207.4246034749
0	1469	118818.072283078073	8816.2753004045
0	1490	120795.39177959986	9333.1201691039
0	1535	123314.091534903733	10209.369709144
0	1560	124225.077017156324	9581.3239203327
0	1587	125945.8274844204	9380.449492857
0	1592	126550.84375051896	8018.319174682
0	1619	128845.563407162017	8585.3033312033
0	1660	130982.216392939079	9109.8273576718
0	1689	134122.224277685196	10968.286658316
0	1714	135399.407064159229	11470.93202469
0	1729	136148.499855717821	10204.854703523
0	1762	137089.453923510709	9291.1982760837
0	1769	138383.706517661188	8799.4333839593
0	1802	140636.593797719821	9748.3218832675
0	1817	141693.214599501205	8488.6713794919
0	1848	143898.194594062731	8805.0650724996
0	1883	147016.359287997599	10565.418752211
0	1902	147837.162267472968	10969.495453201
0	1925	149388.746141337794	9802.0753707465
0	1940	150185.865745822179	8303.335394832
0	1985	153989.416585404628	11406.417572902
0	2010	154909.902297159658	10093.599343961
0	2039	156784.771682430178	9758.4065773786
0	2060	157783.008738796121	9694.614157963
0	2081	159568.659345413052	9797.3014581814
0	2108	161489.558761361785	9704.5538670361
0	2143	163377.806337942918	9875.2356628418
0	2156	163915.608087467634	9240.6856534317
0	2185	166181.751393959852	10034.984243222
0	2210	168068.348392118252	10398.93784056
0	2241	170774.830735175879	10769.546892496
0	2262	171755.62651119789	9988.7351357826
0	2281	172633.867126348921	9710.9363708211
1	61	7687.286840534415	0
1	100	10183.71685386218	1681.7015133623
1	111	11625.511217555793	612.5214045761
1	124	12732.270311237312	1376.3346788934
1	155	16634.470371794368	0
1	180	20822.115627176332	2338.8192036261
1	223	24119.547813723205	4636.8330247614
1	264	27773.01420263973	5586.6679978056
1	285	28881.574710569793	9874.5521688332
1	294	30168.373165310085	7220.211672573
1	325	32498.267651976077	2029.0643926623
1	330	33694.46815029925	2266.9082949988
1	373	36701.482789734062	2387.6380121392
1	402	38624.798048747546	4893.6240702724
1	415	39397.16302413868	2664.2002882708
1	462	42718.345867956295	2229.3117862332
1	485	43947.524844887675	1880.4742928431
1	518	46195.674854645193	1122.3317975039
1	525	47078.520476653239	2237.8372542186
1	564	50474.661593280586	2354.621990081
1	589	51823.791292928485	1646.8111305479
1	604	53136.440320584002	2611.4661123385
1	615	53697.888779998694	4302.0936470109
1	652	56250.586265719943	5039.0256148445
1	669	56888.547668348606	1174.970392364
1	716	60390.811762661283	1508.7912654959
1	737	61170.663847781918	3390.3554439366
1	752	61765.546995491427	2594.9780749226
1	797	67320.034538145786	1971.1669804125
1	810	67727.193713060346	4178.9667760241
1	843	69347.73981504634	5426.1399559836
1	848	70107.156276597896	4499.2181451266
1	887	73626.735875694543	4286.6405856448
1	922	76164.163050018221	4828.6597687663
1	945	77484.463959705961	6592.0163262105
1	948	78464.238599680001	5379.7705263688
1	973	80156.408809964752	4135.620835907
1	980	80937.112831330879	2197.6426861808
1	1031	87002.920395379316	2109.3700466377
1	1056	87865.328571425518	6992.9911389703
1	1063	88496.566827334131	6698.3073573574
1	1088	91009.480711018183	4863.6028748047
1	1091	92397.961887756266	1520.7879016659
1	1148	95428.565514309411	879.81661842078
1	1169	98303.997173518163	4625.8421328861
1	1190	99467.595935318733	2396.9092051688
1	1233	102325.87677671249	797.2238620205
1	1246	103819.475578189809	4261.6480258458
1	1253	104724.213651588136	3948.3292724546
1	1298	108052.806601132616	0
1	1339	110386.608386354205	3794.2902414633
1	1352	111181.844405418506	1477.0784900696
1	1371	112380.280124427574	1512.8533689613
1	1414	115781.25547407126	1587.1940849032
1	1423	116417.382925323666	1590.5313999826
1	1462	118550.113996308037	1281.5593610425
1	1469	118818.072283078073	3122.4600301586
1	1490	120795.39177959986	3576.6343770094
1	1535	123314.091534903733	1776.7194582685
1	1560	124225.077017156324	1916.5000929329
1	1587	125945.8274844204	2450.0467567284
1	1592	126550.84375051896	2393.5112866277
1	1619	128845.563407162017	1645.116857038
1	1660	130982.216392939079	1170.2304550455
1	1689	134122.224277685196	3119.1158421884
1	1714	135399.407064159229	2057.75697102
1	1729	136148.499855717821	2624.8819674248
1	1762	137089.453923510709	2319.9441327696
1	1769	138383.706517661188	2784.3633147563
1	1802	140636.593797719821	1393.793520758
1	1817	141693.214599501205	1669.3296400978
1	1848	143898.194594062731	2276.6134716394
1	1883	147016.359287997599	1964.5966217527
1	1902	147837.162267472968	2893.6908213478
1	1925	149388.746141337794	1260.7900093709
1	1940	150185.865745822179	3240.9324971923
1	1985	153989.416585404628	1269.535719482
1	2010	154909.902297159658	1442.4078005487
1	2039	156784.771682430178	3173.7725823297
1	2060	157783.008738796121	3260.9536093892
1	2081	159568.659345413052	672.83495565453
1	2108	161489.558761361785	2546.6707453297
1	2143	163377.806337942918	2331.622258534
1	2156	163915.608087467634	4593.7730992001
1	2185	166181.751393959852	315.87516644511
1	2210	168068.348392118252	2378.3029570294
1	2241	170774.830735175879	1504.135558122
1	2262	171755.62651119789	3221.9512492365
1	2281	172633.867126348921	226.82260549576
2	2288	172800	69521.641932156
2	2288	172800	67426.243953641
2	2288	172800	75699.38663614
2	2288	172800	60739.92148806
2	2288	172800	68647.920402973
2	2288	172800	78429.815785683
2	2288	172800	78924.147706469

