version 2
run Pipelined_3Teachers-51-20190105-10:57:29-6868
attr configname Pipelined_3Teachers
attr datetime 20190105-10:57:29
attr experiment Pipelined_3Teachers
attr inifile ../simulations/omnetpp.ini
attr iterationvars "$0=\"uniform\""
attr iterationvarsf uniform-
attr measurement "$0=\"uniform\""
attr network PipelinedExamSession
attr processid 6868
attr repetition 51
attr replication #51
attr resultdir results
attr runnumber 51
attr seedset 51
param **.teachersNumber 3
param **.answerTimeDistribution "\"uniform\""
param **.minUniform 300
param **.maxUniform 900
param **.scaleLognormal 6.2854
param **.shapeLognormal 0.4724

vector 0 PipelinedExamSession examinationTime:vector ETV
attr source examFinished
vector 1 PipelinedExamSession studentID:vector ETV
attr source student
0	3167	260048.014390328915	1841.6077231988
0	3176	260801.640981109829	2187.1323001105
0	3181	261132.574732555093	1759.6521700267
0	3194	262584.851950267346	2536.8375599384
0	3203	263407.203029980899	2605.5620488711
0	3208	263731.779087614284	2042.0567319263
0	3217	264385.551585070805	1800.6996348035
0	3230	265431.060090148838	2023.8570601679
0	3235	266114.46884712206	2022.2846636083
0	3244	266797.969793993996	2199.5177923702
0	3255	267835.264310706424	2404.2042205576
0	3264	268353.016986278833	2106.8216413725
0	3271	268856.427868595363	1766.462546261
0	3282	269968.732847878726	2038.9489024412
0	3291	270488.890132354589	1850.7475194521
0	3298	271270.397938555123	1928.562041698
0	3307	271864.218381559493	1878.4968278836
0	3316	272407.982699386792	1752.8594607487
0	3325	273088.003307394699	1596.957331337
0	3336	274033.885119343193	1935.8463898301
0	3343	274697.78175372632	1914.6848362405
0	3352	275200.460725463943	1720.5058519263
0	3361	275758.131237979994	1507.8504290432
0	3370	276530.082547897489	1697.5200483575
0	3383	277844.202724378572	2501.1000189465
0	3392	278571.65010371247	2505.7666813955
0	3401	279053.012232575581	2092.7421840839
0	3406	279531.502163037673	1687.2994386591
0	3415	280063.5801035911	1491.9299998786
0	3424	281020.980710769088	1967.9684781935
0	3435	281968.945331498997	2040.7513942569
0	3442	282321.478892862813	1778.8214737549
0	3447	282874.597213463874	1497.8664788883
0	3464	284519.72072976643	2379.0765926242
0	3469	285090.581209352256	2127.9381268658
0	3480	285673.543298710154	1903.7015852518
0	3491	286366.403956851007	1846.6832270846
0	3498	286876.639109384285	1615.8815955743
0	3505	287426.281981403025	1648.5266944394
0	3514	288244.4984204136	1878.0944635626
0	3527	289037.758413981663	1797.6607711986
0	3532	289498.122697602974	1684.6916844137
0	3543	290664.017375512065	2065.9338725265
0	3550	291000.979504873993	1963.2210908923
0	3559	291994.306526659074	2128.0203720555
0	3572	292978.757045511174	2289.7022091318
0	3579	293428.438027622196	2051.2360855937
0	3586	294085.684189712647	1809.7240594681
0	3599	294958.944498002547	1980.1874524914
0	3606	295299.111910024676	1635.1570956409
0	3615	295719.888123963046	1604.1618689429
0	3624	296719.722488243152	1760.7779902406
0	3633	297393.535959161837	2066.9581441674
0	3644	298564.281424786914	2535.5784868822
0	3653	298996.167426975462	2166.8707536533
0	3662	299845.548091409746	2160.9278852586
0	3671	300615.249968832377	2050.9685440455
0	3680	301470.381722878683	2474.2142959032
0	3685	301830.251101870108	1984.7030104604
0	3698	302907.455098489318	2292.2051296569
0	3707	303756.82715428995	2286.4454314113
0	3712	304126.06667401271	1801.3291081879
0	3725	305205.291677825172	2297.8365793359
0	3730	306030.726618412901	2273.899464123
0	3743	306861.778562888522	2367.6498861518
0	3752	307565.364203928057	2360.0725261029
0	3757	308180.191757390294	2078.2899455633
0	3766	308622.465273784492	1760.686710896
0	3777	309535.026253480483	1969.6620495524
0	3784	310071.0287244525	1647.0428528264
0	3797	311018.869369709883	1926.4033849351
0	3802	311377.730482444186	1651.1234661564
0	3813	312282.684128265847	1731.2182614114
0	3822	313334.617168223504	2315.7477985136
0	3831	314108.171854075063	2371.8143243808
0	3840	314853.98838543335	2226.0961317457
0	3851	315403.690546285381	1994.4125333335
0	3860	316024.019443849122	1737.6320316922
0	3865	316852.455351920819	1910.8768616337
0	3874	317466.535920789486	2062.8453745041
0	3883	318092.350959917551	2068.3315160684
0	3894	318705.540870130082	1802.5555511937
0	3901	319267.591552203542	1771.5402097441
0	3912	320344.4883619901	2176.8522502854
0	3923	321467.27482485587	2553.1066782307
0	3930	322200.937547441593	2480.7394439355
0	3939	323056.089682504555	2440.2474244125
0	3946	323530.206943955293	2062.9321190994
0	3959	324467.749083973487	2193.6303051654
0	3966	324961.090965522473	1896.9623138197
0	3977	326091.56323405916	2276.6758569516
0	3984	326487.211772566681	2019.4626885932
0	3991	326856.300903763642	1613.1907999981
0	4004	328289.378061750924	2197.8148276918
0	4009	328656.527273962294	1819.982400164
0	4020	329571.753993909827	1841.7432767339
0	4027	330212.931662611684	1923.5536008608
0	4038	331270.233945222592	2373.8416939974
0	4047	331988.963295752203	2203.8587580901
0	4056	332897.833967395148	2239.6342942491
0	4067	333957.947642030215	2528.1167283654
0	4074	334469.711042102447	2159.8945052829
0	4081	334780.515342950842	1720.5365157221
0	4092	336211.516601778588	2253.5689597484
0	4101	336971.011643344557	2190.6100123655
0	4110	337791.091249510666	2241.181830503
0	4117	338111.502111330649	1702.1026724484
0	4130	339222.402493050343	1972.9509685189
0	4137	339888.874643761686	2029.8861861695
0	4148	340722.167611029021	2351.4644061215
0	4155	341416.563569102458	2194.1610760521
0	4162	342023.992317589022	1915.6337153167
0	4175	342965.317030437313	2243.1494194083
0	4180	343294.373990921326	1720.7658515777
0	4193	344362.213861243821	2178.4678355791
0	4202	344923.168169427685	1957.8511389904
0	4207	345334.459852008171	1726.8594049383
0	4218	346129.135958477877	1766.9220972341
0	4227	346999.862114712619	2076.6939452849
0	4234	347328.05991615171	1656.3178512733
0	4243	348163.054049061634	1801.997477375
0	4254	349216.13331078554	2203.136160085
0	4263	349838.982340553798	2110.7423851266
0	4270	350230.880507826828	1640.4030160513
0	4279	351279.406556580239	2009.0178808663
0	4290	352079.406790109374	1985.4615087155
0	4301	352925.64524165357	1958.9605647605
0	4306	353326.88582693229	1865.0322865695
0	4317	354120.148745086068	1865.4590791091
0	4326	354912.905570073077	1987.2603284195
0	4335	355680.246347514936	2108.4820129909
0	4346	356572.163768811175	2141.9174310286
0	4351	357008.580528572225	1803.8531529251
0	4362	358266.804286139109	2507.6313936152
0	4373	359049.542811093875	2477.3790422827
0	4378	359394.111467013159	1978.6027099472
0	4389	360203.598104557046	1908.6947842967
0	4398	361026.098560122796	1976.5557490289
0	4409	361861.454997025453	2126.4089075848
0	4416	362223.88276504355	1782.7679481357
0	4427	362873.571185627975	1805.3155231755
0	4436	363680.564289819472	1819.109292794
0	4441	364142.790437210374	1904.5687673148
0	4452	365161.869288375624	2288.2981027476
0	4459	365533.552261395403	1852.9879715759
0	4470	366388.593179918849	1909.214321617
0	4477	366726.846115523973	1525.2413545735
0	4488	367698.597740940772	2097.696637921
0	4495	368269.166050152875	1869.4838404655
0	4506	369101.725276093952	2083.0296550412
0	4517	370157.307825889461	2437.9825521726
0	4526	371007.934000203409	2472.8018090129
0	4533	371686.178202414908	2315.094433073
0	4544	372643.459316762188	2486.1514908727
0	4551	373069.681128021353	2061.7471278179
0	4560	373670.877870032587	1894.7516191285
0	4567	374122.590624354803	1479.1313075926
0	4576	375095.671750232601	1829.3156054802
0	4585	375787.101291725436	1891.0499176942
0	4598	377002.646427182504	2218.3174049947
0	4603	377312.550050066807	1648.672314221
0	4616	378310.714821238094	1847.1347167622
0	4621	378619.241261668527	1616.594834486
0	4632	379449.371716752672	1852.2851147689
0	4639	379981.795224035182	1671.0804027971
0	4650	380665.685018012323	1885.2625094354
0	4659	381457.743570534535	1907.8607907984
0	4666	381794.217177154519	1502.7654920239
0	4679	383049.357657646783	2059.9276046734
0	4684	383580.909711727895	1906.5031786915
0	4697	384598.914957745024	2308.7545517832
0	4706	385297.327630966925	2247.9699733201
0	4713	385802.701582387113	2042.3982427921
0	4722	386409.718171041482	1810.8032132965
0	4729	386858.074543252611	1560.7469122857
0	4742	388326.701987581351	2468.5510901269
0	4749	389044.092983147153	2428.0770117883
0	4758	389790.33796959559	2344.5372147951
0	4767	390410.111269354844	2083.4092817735
0	4778	391305.662908544788	2203.1789988745
0	4785	391847.199159767503	1873.8955448382
0	4792	392502.655943110609	2011.4166181069
0	4803	393298.743175668666	1993.0802671239
0	4814	394190.683521050983	2102.8931854293
0	4823	394759.5012274571	2163.7123583816
0	4830	395246.369837829867	1871.826598607
0	4839	396133.952002041066	1943.2684809901
0	4846	396639.420171920234	1879.9189444631
0	4855	397343.937706947351	1937.4844523147
0	4864	398355.360457487429	2119.420893956
0	4877	399301.855825027475	2369.1800701898
0	4886	399999.293342186162	2377.439700393
0	4893	400620.285558002094	2131.3363715541
0	4904	401443.444431200648	2141.5886061732
0	4909	401875.060663931096	1875.7673217449
0	4922	402966.45345948639	2345.6655635498
0	4927	403319.162571989025	1875.7181407884
0	4940	404395.847959443951	2299.9971995596
0	4947	405117.74357836696	2151.2901188806
0	4958	405938.11974911953	2238.7410916854
0	4963	406384.260445972929	1988.412486529
0	4972	406922.782674198995	1804.2292153928
0	4985	408055.359718389834	2117.2399692703
0	4990	408462.346482044111	1851.7875482328
0	4999	408952.893677540148	1629.5203249902
0	5012	410340.077703679006	2284.7179852892
0	5021	411218.51643431003	2416.6743936483
0	5028	411957.916953926932	2448.8569138572
0	5039	412803.751869499709	2463.6741658207
0	5048	413542.459029983755	2323.9425956737
0	5055	414258.742931904297	2179.4762235135
0	5066	415112.106316583257	2308.3544470835
0	5075	415787.155875423949	2244.6968454402
0	5080	416087.604255555223	1718.0654372089
0	5091	417042.600835813236	1930.49451923
0	5102	417991.021925490376	2203.8660500664
0	5111	418706.280907290083	2070.4281734303
0	5116	419069.741110084605	1856.980222743
0	5129	420023.658034997088	2032.6361095067
0	5136	420450.514687970308	1744.2337806802
0	5143	421412.358431657803	2014.6086901892
0	5152	422323.285866854739	2299.6278318577
0	5163	423067.589328065542	2181.0663719662
0	5172	423854.049634840366	2233.6732177064
0	5179	424280.877170059857	1778.6053043325
0	5188	425177.851004339781	1953.1057657208
0	5201	426263.840535795343	2365.6285622623
0	5210	427123.447240004343	2379.0686578956
0	5217	427756.301287002889	2310.9251672868
0	5224	428438.831466995207	2174.9909311999
0	5235	429295.7097812556	2172.2625412513
0	5244	429904.097874043536	1996.3994573336
0	5251	430364.163539232713	1676.0045276955
0	5264	431362.214950891239	1999.3575147819
0	5271	431978.130431659547	1953.2111573964
0	5282	433004.927988303853	2486.2485105637
0	5291	433771.479226788534	2409.2642758973
0	5300	434652.400488127051	2407.5122594833
0	5307	435278.273753961576	2273.3457656577
0	5316	435979.778694128645	2208.2994673401
0	5323	436492.178790830103	1839.7783027031
0	5332	437474.18596842329	2019.2157286685
0	5341	438126.499818591429	2092.1972757205
0	5354	439168.283581221504	2293.8624122646
0	5361	439660.586611926583	1958.4983143955
0	5368	440075.405948935104	1726.021767268
0	5381	441462.818133272259	2294.5345520508
0	5388	442071.507703978597	2295.8884300198
0	5399	442846.30627837035	2234.8295209464
0	5406	443326.032273843914	1863.2141405717
0	5417	444475.709838699579	2391.5094663855
0	5422	445001.067179627746	2154.7609012574
0	5435	446027.592504071102	2347.6316942833
0	5444	446907.761538215012	2432.0516995154
0	5453	447314.969436451823	2126.1821877211
0	5462	448152.228160528496	2124.6356564574
0	5467	448616.184603609175	1708.4230653942
0	5478	449616.020401893213	2301.0509654414
0	5487	450495.817171828851	2343.5890113004
0	5496	451189.194790972426	2206.4297997393
0	5503	452032.20290900211	2293.1454445235
0	5516	452979.22972580421	2442.6956470124
0	5525	453610.864404821799	2178.6286823452
0	5534	454468.612520489872	2152.3460204713
0	5543	455267.390823690251	2288.161097886
0	5550	455679.740552790493	2068.8761479687
0	5561	456470.489030471102	2001.8765099812
0	5570	457274.923162674562	2007.5323389843
0	5579	458119.393841223822	2149.3546110112
0	5586	458836.402789643065	2365.913759172
0	5593	459540.712017472865	2265.7888547983
0	5604	460398.543593008102	2279.1497517843
0	5613	460852.143460325928	1950.1422937028
0	5620	461516.663137776808	1840.1686012745
0	5629	462234.398588631333	1819.3708464503
0	5638	462864.958768151732	1608.2732374314
0	5651	464117.614073446052	2249.1929059848
0	5658	464591.634383797677	1955.5369993206
0	5665	465327.330237021701	1909.6286008134
0	5674	465981.098239263551	1863.4841658175
0	5687	467143.494862737166	2183.7986782193
0	5696	467923.578207101705	2150.3139099106
0	5701	468226.03651955727	1595.2812619507
0	5710	468877.053943555834	1733.5590808187
0	5719	469836.002047034012	1912.4238399323
0	5728	470446.949140168758	1819.1250710282
0	5741	471650.814955774727	2240.7682531513
0	5748	472206.877814512732	2173.0833671987
0	5755	472865.032086940515	1999.1217959672
0	5764	473382.747807260635	1731.9328514859
0	5773	473715.721341362255	1421.4042706881
0	5786	475373.421933408859	2382.9403895885
0	5793	475912.557795597273	2278.0419301707
0	5802	476605.923130083862	2114.2669298686
0	5809	477320.451892353627	1947.0299589448
0	5818	477976.740209106388	1768.3254808187
0	5827	478757.689735293421	1762.0271420572
0	5836	479648.163776379112	2026.0508364066
0	5847	480580.103637836907	2308.5703485645
0	5856	481416.286577191237	2385.4967182036
0	5865	481833.458702825043	2079.9134034198
0	5876	482698.901481041718	2048.8569247071
0	5885	483275.770930526811	1842.3527092673
0	5890	483830.240367120165	1946.5883166064
0	5901	484666.068381769616	1967.1669007279
0	5908	485142.912325216491	1867.1413946897
0	5921	486538.05679441433	2407.6866079587
0	5930	487348.554149363223	2460.6936543714
0	5935	487658.582524722475	1998.2171420474
0	5948	488972.327363491092	2434.2705690768
0	5953	489281.196845322881	1932.6426959597
0	5966	490527.433963492546	2437.4683756381
0	5971	490960.277117695693	1987.9497542046
0	5982	491825.341462623362	2084.6989367623
0	5991	492484.841846767847	1957.4078832753
0	5998	493107.325803022866	1799.960645847
0	6011	494170.031237276305	2285.2986500133
0	6020	495065.582003491033	2399.7120816261
0	6029	495856.733410572667	2469.7952211834
0	6036	496552.017709007521	2381.9864717312
0	6043	497116.96673445407	2051.384730963
0	6052	497744.384777918493	1887.6513673458
0	6061	498632.28669581007	2044.9930651579
0	6072	499120.25649924766	1647.014186997
0	6079	499848.937549721485	1629.4306546915
0	6090	500679.120150581037	2019.1373920999
0	6099	501788.094284199214	2422.340790974
0	6110	502222.966139344534	2120.1660635881
0	6119	502974.870907841286	2039.8180686403
0	6124	503476.599358907005	1643.4350704774
0	6137	504633.566920319608	2410.6007809751
0	6146	504997.888634959272	2023.017727118
0	6151	505413.075818074903	1674.5045479853
0	6162	506242.238014563954	1608.6710942443
0	6173	507087.122980691529	2089.2343457323
0	6182	507839.948254823721	2154.362866329
0	6187	508323.992595076597	1793.4095562436
0	6198	509410.149835143275	2323.0268544517
0	6209	510088.905786769501	2248.9575319458
0	6214	510652.476259181312	1977.7372609824
0	6223	511281.261029094494	1826.1302799918
0	6236	512211.997571121938	2123.0917843524
0	6243	512691.707162931598	1948.5340724699
0	6252	513277.777854865454	1751.5483307652
0	6259	513736.269031371958	1524.27146025
0	6270	514837.339016888327	2017.2843522392
0	6277	515412.494987715073	1952.7684033383
0	6288	516287.345969723574	2055.7922184002
0	6295	517106.663169572167	2024.2984386161
0	6306	517953.481608442999	2155.1090116147
0	6317	518631.85940631669	2174.3788826745
0	6324	519263.898266432844	1928.05307745
0	6335	520144.822295615487	2139.5444800146
0	6340	520484.367955103554	1852.5085487869
0	6353	521692.719166120552	2422.1780707128
0	6362	522511.195964505934	2366.3736688904
0	6371	523378.703877702393	2410.7870362233
0	6378	523882.753171306141	2190.0340051856
0	6385	524623.276833258607	2112.0808687527
0	6398	525533.201859192961	2154.4979814906
0	6405	526230.271736159959	2166.1744938232
0	6414	526899.864827049934	2087.4221725389
0	6423	527631.474192487114	2098.2723332942
0	6434	528574.089772487098	2310.2240255568
0	6443	529445.131651964077	2332.2497438639
0	6450	529948.341550910884	2251.4721147716
0	6457	530261.499634757677	1687.4098622706
0	6468	531242.501762090289	1797.3701101262
0	6475	531730.506435083264	1693.043237133
0	6486	532672.994358418548	1908.8671257254
0	6493	533209.406160609835	1925.7988848723
0	6504	534365.235126391092	2310.713074822
0	6513	534992.03134565618	2132.2560040746
0	6522	535611.889428924808	2021.5268509928
0	6529	536100.165100721681	1660.6310696807
0	6538	536892.002625390926	1850.0484572724
0	6549	537711.459606047758	1970.4791394062
0	6556	538674.009691318534	2045.0678649824
0	6565	539559.91484946575	2177.5657336693
0	6576	540262.393701123111	2050.1886219252
0	6585	540821.619086992033	1748.7454955466
0	6596	541893.260511243754	2053.3838958945
0	6605	542598.414708813691	2229.3382880744
0	6610	542986.436630738938	1934.9460718688
0	6619	543762.868307763749	1869.60779652
0	6628	544678.312399238387	2079.8976904247
0	6641	545616.880362527485	2342.0584951993
0	6648	546429.463534243445	2466.704170173
0	6659	547173.508255882229	2440.6258867588
0	6666	547783.858122350688	2166.9777598232
0	6677	548630.966878356452	2159.5903114881
0	6682	549055.277555342804	1881.7692994606
0	6693	549793.457079492549	1916.709786281
0	6704	550915.972072770859	2285.0051944144
0	6711	551445.623804954852	2293.4139580932
0	6718	551824.193023564334	1772.5758388638
0	6729	553000.797227025072	2084.8251542542
0	6740	554077.594580501358	2483.4834926762
0	6747	554848.167483927722	2513.6740703601
0	6758	555733.42377813537	2543.8117216341
0	6767	556612.85238401037	2535.257803509
0	6772	556953.83578799669	2000.8264912292
0	6781	557816.858883854042	2083.4351057187
0	6792	558464.883512724231	1852.0311287139
0	6803	559516.92986288112	2222.9440465104
0	6812	560281.03177221496	2204.2399135418
0	6821	560965.186661481898	2041.9034144841
0	6828	561486.263270443346	1969.3334075622
0	6835	562042.108960496302	1761.0771882813
0	6848	563309.405423887115	2344.2187624052
0	6857	563903.043695306446	2198.6028071959
0	6864	564433.499073889147	1872.2005260643
0	6875	565278.451319178607	1969.0458952915
0	6884	565803.044832218479	1900.001136912
0	6893	566395.432859938632	1961.7616466247
0	6900	567102.503658179234	1824.0523390006
0	6907	567591.646840749348	1788.6020085309
0	6916	568005.903021711896	1610.4701617733
0	6927	568999.01875066575	1740.3239050414
0	6936	569739.17033225302	2013.6057775933
0	6947	570637.277845479588	2429.8433513381
0	6952	571077.438681386451	2077.4841737933
0	6963	572107.429535547311	2360.6544675305
0	6970	572637.679783115203	2000.4019376356
0	6981	573356.754520023282	1893.0731710978
0	6988	574082.928818045224	1793.9148374833
0	6997	574735.248123016248	1715.9973695409
0	7008	575608.964491775299	2084.7528997343
0	7017	576089.543924387584	1723.0481368024
0	7024	576710.25338396434	1624.1923495196
0	7033	577469.130512047599	1815.1892939117
0	7042	578288.672606321092	1887.5112866051
0	7051	579357.634533522691	2369.0372249577
0	7060	579773.518660152371	1986.859303806
0	7069	580551.289424998726	1968.975405721
0	7080	581362.6898826566	1923.785060551
0	7089	582166.850192332681	2006.6192497965
0	7100	583097.398622240913	2187.0896337088
0	7105	583616.773926559878	1904.0573445149
0	7114	584206.708937091795	1815.2652113233
0	7127	585124.3520629127	2026.9534406718
0	7134	585771.340601798189	2043.4164122678
0	7143	586665.33669694331	2095.7458286081
0	7154	587393.862269818826	2269.5102069061
0	7161	588084.139482351063	2065.3752280399
0	7168	588385.843925178094	1510.1500921883
0	7179	589604.032371053515	2210.1701012347
0	7190	590435.823417780964	2229.8056294676
0	7199	591264.466087287335	2385.2966775186
0	7208	592161.171402828811	2410.2727705613
0	7217	592685.691684996752	2249.8682672158
0	7224	593464.171836851208	2199.7057495639
0	7231	593828.445117361887	1667.2737145331
0	7242	594843.184948107271	2157.4932631105
0	7249	595279.321807343556	1699.2351969704
0	7258	595944.356550090058	1605.1011642907
0	7269	596903.144434886097	1842.3474795185
0	7278	597757.280353456779	2134.077941766
0	7289	598720.660656737207	2316.2123490125
0	7296	599317.690315889238	2320.8858857397
0	7307	600117.7534968127	2291.0835952498
0	7314	600604.309688648252	1883.649031911
0	7323	601048.962220503061	1719.7052667383
0	7332	601696.343365078836	1578.5898682661
0	7339	602216.723542939916	1574.9537865166
0	7348	602746.539503149733	1571.3686832227
0	7359	604175.28511891146	2269.285514066
1	3167	260048.014390328915	350
1	3176	260801.640981109829	351
1	3181	261132.574732555093	352
1	3194	262584.851950267346	353
1	3203	263407.203029980899	354
1	3208	263731.779087614284	355
1	3217	264385.551585070805	356
1	3230	265431.060090148838	357
1	3235	266114.46884712206	358
1	3244	266797.969793993996	359
1	3255	267835.264310706424	360
1	3264	268353.016986278833	361
1	3271	268856.427868595363	362
1	3282	269968.732847878726	363
1	3291	270488.890132354589	364
1	3298	271270.397938555123	365
1	3307	271864.218381559493	366
1	3316	272407.982699386792	367
1	3325	273088.003307394699	368
1	3336	274033.885119343193	369
1	3343	274697.78175372632	370
1	3352	275200.460725463943	371
1	3361	275758.131237979994	372
1	3370	276530.082547897489	373
1	3383	277844.202724378572	374
1	3392	278571.65010371247	375
1	3401	279053.012232575581	376
1	3406	279531.502163037673	377
1	3415	280063.5801035911	378
1	3424	281020.980710769088	379
1	3435	281968.945331498997	380
1	3442	282321.478892862813	381
1	3447	282874.597213463874	382
1	3464	284519.72072976643	383
1	3469	285090.581209352256	384
1	3480	285673.543298710154	385
1	3491	286366.403956851007	386
1	3498	286876.639109384285	387
1	3505	287426.281981403025	388
1	3514	288244.4984204136	389
1	3527	289037.758413981663	390
1	3532	289498.122697602974	391
1	3543	290664.017375512065	392
1	3550	291000.979504873993	393
1	3559	291994.306526659074	394
1	3572	292978.757045511174	395
1	3579	293428.438027622196	396
1	3586	294085.684189712647	397
1	3599	294958.944498002547	398
1	3606	295299.111910024676	399
1	3615	295719.888123963046	400
1	3624	296719.722488243152	401
1	3633	297393.535959161837	402
1	3644	298564.281424786914	403
1	3653	298996.167426975462	404
1	3662	299845.548091409746	405
1	3671	300615.249968832377	406
1	3680	301470.381722878683	407
1	3685	301830.251101870108	408
1	3698	302907.455098489318	409
1	3707	303756.82715428995	410
1	3712	304126.06667401271	411
1	3725	305205.291677825172	412
1	3730	306030.726618412901	413
1	3743	306861.778562888522	414
1	3752	307565.364203928057	415
1	3757	308180.191757390294	416
1	3766	308622.465273784492	417
1	3777	309535.026253480483	418
1	3784	310071.0287244525	419
1	3797	311018.869369709883	420
1	3802	311377.730482444186	421
1	3813	312282.684128265847	422
1	3822	313334.617168223504	423
1	3831	314108.171854075063	424
1	3840	314853.98838543335	425
1	3851	315403.690546285381	426
1	3860	316024.019443849122	427
1	3865	316852.455351920819	428
1	3874	317466.535920789486	429
1	3883	318092.350959917551	430
1	3894	318705.540870130082	431
1	3901	319267.591552203542	432
1	3912	320344.4883619901	433
1	3923	321467.27482485587	434
1	3930	322200.937547441593	435
1	3939	323056.089682504555	436
1	3946	323530.206943955293	437
1	3959	324467.749083973487	438
1	3966	324961.090965522473	439
1	3977	326091.56323405916	440
1	3984	326487.211772566681	441
1	3991	326856.300903763642	442
1	4004	328289.378061750924	443
1	4009	328656.527273962294	444
1	4020	329571.753993909827	445
1	4027	330212.931662611684	446
1	4038	331270.233945222592	447
1	4047	331988.963295752203	448
1	4056	332897.833967395148	449
1	4067	333957.947642030215	450
1	4074	334469.711042102447	451
1	4081	334780.515342950842	452
1	4092	336211.516601778588	453
1	4101	336971.011643344557	454
1	4110	337791.091249510666	455
1	4117	338111.502111330649	456
1	4130	339222.402493050343	457
1	4137	339888.874643761686	458
1	4148	340722.167611029021	459
1	4155	341416.563569102458	460
1	4162	342023.992317589022	461
1	4175	342965.317030437313	462
1	4180	343294.373990921326	463
1	4193	344362.213861243821	464
1	4202	344923.168169427685	465
1	4207	345334.459852008171	466
1	4218	346129.135958477877	467
1	4227	346999.862114712619	468
1	4234	347328.05991615171	469
1	4243	348163.054049061634	470
1	4254	349216.13331078554	471
1	4263	349838.982340553798	472
1	4270	350230.880507826828	473
1	4279	351279.406556580239	474
1	4290	352079.406790109374	475
1	4301	352925.64524165357	476
1	4306	353326.88582693229	477
1	4317	354120.148745086068	478
1	4326	354912.905570073077	479
1	4335	355680.246347514936	480
1	4346	356572.163768811175	481
1	4351	357008.580528572225	482
1	4362	358266.804286139109	483
1	4373	359049.542811093875	484
1	4378	359394.111467013159	485
1	4389	360203.598104557046	486
1	4398	361026.098560122796	487
1	4409	361861.454997025453	488
1	4416	362223.88276504355	489
1	4427	362873.571185627975	490
1	4436	363680.564289819472	491
1	4441	364142.790437210374	492
1	4452	365161.869288375624	493
1	4459	365533.552261395403	494
1	4470	366388.593179918849	495
1	4477	366726.846115523973	496
1	4488	367698.597740940772	497
1	4495	368269.166050152875	498
1	4506	369101.725276093952	499
1	4517	370157.307825889461	500
1	4526	371007.934000203409	501
1	4533	371686.178202414908	502
1	4544	372643.459316762188	503
1	4551	373069.681128021353	504
1	4560	373670.877870032587	505
1	4567	374122.590624354803	506
1	4576	375095.671750232601	507
1	4585	375787.101291725436	508
1	4598	377002.646427182504	509
1	4603	377312.550050066807	510
1	4616	378310.714821238094	511
1	4621	378619.241261668527	512
1	4632	379449.371716752672	513
1	4639	379981.795224035182	514
1	4650	380665.685018012323	515
1	4659	381457.743570534535	516
1	4666	381794.217177154519	517
1	4679	383049.357657646783	518
1	4684	383580.909711727895	519
1	4697	384598.914957745024	520
1	4706	385297.327630966925	521
1	4713	385802.701582387113	522
1	4722	386409.718171041482	523
1	4729	386858.074543252611	524
1	4742	388326.701987581351	525
1	4749	389044.092983147153	526
1	4758	389790.33796959559	527
1	4767	390410.111269354844	528
1	4778	391305.662908544788	529
1	4785	391847.199159767503	530
1	4792	392502.655943110609	531
1	4803	393298.743175668666	532
1	4814	394190.683521050983	533
1	4823	394759.5012274571	534
1	4830	395246.369837829867	535
1	4839	396133.952002041066	536
1	4846	396639.420171920234	537
1	4855	397343.937706947351	538
1	4864	398355.360457487429	539
1	4877	399301.855825027475	540
1	4886	399999.293342186162	541
1	4893	400620.285558002094	542
1	4904	401443.444431200648	543
1	4909	401875.060663931096	544
1	4922	402966.45345948639	545
1	4927	403319.162571989025	546
1	4940	404395.847959443951	547
1	4947	405117.74357836696	548
1	4958	405938.11974911953	549
1	4963	406384.260445972929	550
1	4972	406922.782674198995	551
1	4985	408055.359718389834	552
1	4990	408462.346482044111	553
1	4999	408952.893677540148	554
1	5012	410340.077703679006	555
1	5021	411218.51643431003	556
1	5028	411957.916953926932	557
1	5039	412803.751869499709	558
1	5048	413542.459029983755	559
1	5055	414258.742931904297	560
1	5066	415112.106316583257	561
1	5075	415787.155875423949	562
1	5080	416087.604255555223	563
1	5091	417042.600835813236	564
1	5102	417991.021925490376	565
1	5111	418706.280907290083	566
1	5116	419069.741110084605	567
1	5129	420023.658034997088	568
1	5136	420450.514687970308	569
1	5143	421412.358431657803	570
1	5152	422323.285866854739	571
1	5163	423067.589328065542	572
1	5172	423854.049634840366	573
1	5179	424280.877170059857	574
1	5188	425177.851004339781	575
1	5201	426263.840535795343	576
1	5210	427123.447240004343	577
1	5217	427756.301287002889	578
1	5224	428438.831466995207	579
1	5235	429295.7097812556	580
1	5244	429904.097874043536	581
1	5251	430364.163539232713	582
1	5264	431362.214950891239	583
1	5271	431978.130431659547	584
1	5282	433004.927988303853	585
1	5291	433771.479226788534	586
1	5300	434652.400488127051	587
1	5307	435278.273753961576	588
1	5316	435979.778694128645	589
1	5323	436492.178790830103	590
1	5332	437474.18596842329	591
1	5341	438126.499818591429	592
1	5354	439168.283581221504	593
1	5361	439660.586611926583	594
1	5368	440075.405948935104	595
1	5381	441462.818133272259	596
1	5388	442071.507703978597	597
1	5399	442846.30627837035	598
1	5406	443326.032273843914	599
1	5417	444475.709838699579	600
1	5422	445001.067179627746	601
1	5435	446027.592504071102	602
1	5444	446907.761538215012	603
1	5453	447314.969436451823	604
1	5462	448152.228160528496	605
1	5467	448616.184603609175	606
1	5478	449616.020401893213	607
1	5487	450495.817171828851	608
1	5496	451189.194790972426	609
1	5503	452032.20290900211	610
1	5516	452979.22972580421	611
1	5525	453610.864404821799	612
1	5534	454468.612520489872	613
1	5543	455267.390823690251	614
1	5550	455679.740552790493	615
1	5561	456470.489030471102	616
1	5570	457274.923162674562	617
1	5579	458119.393841223822	618
1	5586	458836.402789643065	619
1	5593	459540.712017472865	620
1	5604	460398.543593008102	621
1	5613	460852.143460325928	622
1	5620	461516.663137776808	623
1	5629	462234.398588631333	624
1	5638	462864.958768151732	625
1	5651	464117.614073446052	626
1	5658	464591.634383797677	627
1	5665	465327.330237021701	628
1	5674	465981.098239263551	629
1	5687	467143.494862737166	630
1	5696	467923.578207101705	631
1	5701	468226.03651955727	632
1	5710	468877.053943555834	633
1	5719	469836.002047034012	634
1	5728	470446.949140168758	635
1	5741	471650.814955774727	636
1	5748	472206.877814512732	637
1	5755	472865.032086940515	638
1	5764	473382.747807260635	639
1	5773	473715.721341362255	640
1	5786	475373.421933408859	641
1	5793	475912.557795597273	642
1	5802	476605.923130083862	643
1	5809	477320.451892353627	644
1	5818	477976.740209106388	645
1	5827	478757.689735293421	646
1	5836	479648.163776379112	647
1	5847	480580.103637836907	648
1	5856	481416.286577191237	649
1	5865	481833.458702825043	650
1	5876	482698.901481041718	651
1	5885	483275.770930526811	652
1	5890	483830.240367120165	653
1	5901	484666.068381769616	654
1	5908	485142.912325216491	655
1	5921	486538.05679441433	656
1	5930	487348.554149363223	657
1	5935	487658.582524722475	658
1	5948	488972.327363491092	659
1	5953	489281.196845322881	660
1	5966	490527.433963492546	661
1	5971	490960.277117695693	662
1	5982	491825.341462623362	663
1	5991	492484.841846767847	664
1	5998	493107.325803022866	665
1	6011	494170.031237276305	666
1	6020	495065.582003491033	667
1	6029	495856.733410572667	668
1	6036	496552.017709007521	669
1	6043	497116.96673445407	670
1	6052	497744.384777918493	671
1	6061	498632.28669581007	672
1	6072	499120.25649924766	673
1	6079	499848.937549721485	674
1	6090	500679.120150581037	675
1	6099	501788.094284199214	676
1	6110	502222.966139344534	677
1	6119	502974.870907841286	678
1	6124	503476.599358907005	679
1	6137	504633.566920319608	680
1	6146	504997.888634959272	681
1	6151	505413.075818074903	682
1	6162	506242.238014563954	683
1	6173	507087.122980691529	684
1	6182	507839.948254823721	685
1	6187	508323.992595076597	686
1	6198	509410.149835143275	687
1	6209	510088.905786769501	688
1	6214	510652.476259181312	689
1	6223	511281.261029094494	690
1	6236	512211.997571121938	691
1	6243	512691.707162931598	692
1	6252	513277.777854865454	693
1	6259	513736.269031371958	694
1	6270	514837.339016888327	695
1	6277	515412.494987715073	696
1	6288	516287.345969723574	697
1	6295	517106.663169572167	698
1	6306	517953.481608442999	699
1	6317	518631.85940631669	700
1	6324	519263.898266432844	701
1	6335	520144.822295615487	702
1	6340	520484.367955103554	703
1	6353	521692.719166120552	704
1	6362	522511.195964505934	705
1	6371	523378.703877702393	706
1	6378	523882.753171306141	707
1	6385	524623.276833258607	708
1	6398	525533.201859192961	709
1	6405	526230.271736159959	710
1	6414	526899.864827049934	711
1	6423	527631.474192487114	712
1	6434	528574.089772487098	713
1	6443	529445.131651964077	714
1	6450	529948.341550910884	715
1	6457	530261.499634757677	716
1	6468	531242.501762090289	717
1	6475	531730.506435083264	718
1	6486	532672.994358418548	719
1	6493	533209.406160609835	720
1	6504	534365.235126391092	721
1	6513	534992.03134565618	722
1	6522	535611.889428924808	723
1	6529	536100.165100721681	724
1	6538	536892.002625390926	725
1	6549	537711.459606047758	726
1	6556	538674.009691318534	727
1	6565	539559.91484946575	728
1	6576	540262.393701123111	729
1	6585	540821.619086992033	730
1	6596	541893.260511243754	731
1	6605	542598.414708813691	732
1	6610	542986.436630738938	733
1	6619	543762.868307763749	734
1	6628	544678.312399238387	735
1	6641	545616.880362527485	736
1	6648	546429.463534243445	737
1	6659	547173.508255882229	738
1	6666	547783.858122350688	739
1	6677	548630.966878356452	740
1	6682	549055.277555342804	741
1	6693	549793.457079492549	742
1	6704	550915.972072770859	743
1	6711	551445.623804954852	744
1	6718	551824.193023564334	745
1	6729	553000.797227025072	746
1	6740	554077.594580501358	747
1	6747	554848.167483927722	748
1	6758	555733.42377813537	749
1	6767	556612.85238401037	750
1	6772	556953.83578799669	751
1	6781	557816.858883854042	752
1	6792	558464.883512724231	753
1	6803	559516.92986288112	754
1	6812	560281.03177221496	755
1	6821	560965.186661481898	756
1	6828	561486.263270443346	757
1	6835	562042.108960496302	758
1	6848	563309.405423887115	759
1	6857	563903.043695306446	760
1	6864	564433.499073889147	761
1	6875	565278.451319178607	762
1	6884	565803.044832218479	763
1	6893	566395.432859938632	764
1	6900	567102.503658179234	765
1	6907	567591.646840749348	766
1	6916	568005.903021711896	767
1	6927	568999.01875066575	768
1	6936	569739.17033225302	769
1	6947	570637.277845479588	770
1	6952	571077.438681386451	771
1	6963	572107.429535547311	772
1	6970	572637.679783115203	773
1	6981	573356.754520023282	774
1	6988	574082.928818045224	775
1	6997	574735.248123016248	776
1	7008	575608.964491775299	777
1	7017	576089.543924387584	778
1	7024	576710.25338396434	779
1	7033	577469.130512047599	780
1	7042	578288.672606321092	781
1	7051	579357.634533522691	782
1	7060	579773.518660152371	783
1	7069	580551.289424998726	784
1	7080	581362.6898826566	785
1	7089	582166.850192332681	786
1	7100	583097.398622240913	787
1	7105	583616.773926559878	788
1	7114	584206.708937091795	789
1	7127	585124.3520629127	790
1	7134	585771.340601798189	791
1	7143	586665.33669694331	792
1	7154	587393.862269818826	793
1	7161	588084.139482351063	794
1	7168	588385.843925178094	795
1	7179	589604.032371053515	796
1	7190	590435.823417780964	797
1	7199	591264.466087287335	798
1	7208	592161.171402828811	799
1	7217	592685.691684996752	800
1	7224	593464.171836851208	801
1	7231	593828.445117361887	802
1	7242	594843.184948107271	803
1	7249	595279.321807343556	804
1	7258	595944.356550090058	805
1	7269	596903.144434886097	806
1	7278	597757.280353456779	807
1	7289	598720.660656737207	808
1	7296	599317.690315889238	809
1	7307	600117.7534968127	810
1	7314	600604.309688648252	811
1	7323	601048.962220503061	812
1	7332	601696.343365078836	813
1	7339	602216.723542939916	814
1	7348	602746.539503149733	815
1	7359	604175.28511891146	816

