version 2
run Pipelined_3Teachers-4-20190105-10:57:18-16556
attr configname Pipelined_3Teachers
attr datetime 20190105-10:57:18
attr experiment Pipelined_3Teachers
attr inifile ../simulations/omnetpp.ini
attr iterationvars "$0=\"uniform\""
attr iterationvarsf uniform-
attr measurement "$0=\"uniform\""
attr network PipelinedExamSession
attr processid 16556
attr repetition 4
attr replication #4
attr resultdir results
attr runnumber 4
attr seedset 4
param **.teachersNumber 3
param **.answerTimeDistribution "\"uniform\""
param **.minUniform 300
param **.maxUniform 900
param **.scaleLognormal 6.2854
param **.shapeLognormal 0.4724

vector 0 PipelinedExamSession examinationTime:vector ETV
attr source examFinished
vector 1 PipelinedExamSession studentID:vector ETV
attr source student
0	3120	260582.329585030701	1853.0073833652
0	3129	261514.769382169496	2069.7477734182
0	3138	262116.008508112308	1906.3832097687
0	3145	262581.924678990644	1823.4687332064
0	3154	263175.096678547587	1642.4286531284
0	3167	264104.251359868821	1926.4968487434
0	3174	264914.61403733122	1879.7509177588
0	3185	265760.065408190739	2279.1747044306
0	3190	266101.523787388605	1997.2724275198
0	3199	267155.706312367719	2191.2725712173
0	3208	268121.88388179059	2361.8184735999
0	3217	268863.178134430226	2302.2911936045
0	3230	269732.65523635785	2365.2250589803
0	3239	270412.479278398705	2270.7598269917
0	3246	270738.628424936933	1795.0830129907
0	3249	271168.433249462423	1435.7780131046
0	3262	272737.508686725078	2325.0294083264
0	3271	273296.369602996884	1990.9784723539
0	3280	273882.54196741621	1691.1926319357
0	3291	274921.487121144337	1923.3002695721
0	3298	275572.344520082725	2071.5071045794
0	3309	276583.183236513315	2235.4421503376
0	3316	277310.951023595436	2112.5651298556
0	3325	278081.113416608451	2067.8598416504
0	3334	278555.849719187273	1882.8293949366
0	3343	279073.800434265313	1513.7872486375
0	3352	279652.282265480636	1442.7570316941
0	3361	280705.770151270581	1893.2975152507
0	3374	281741.627064440428	2236.6723066662
0	3379	282059.970123181148	2056.9873797242
0	3392	283079.27454644817	2200.4499132279
0	3397	283576.498413831024	1834.8713493906
0	3406	284251.973981363728	2067.1001249459
0	3417	285318.648710148438	2239.3741637003
0	3428	286307.651209831266	2551.4606064185
0	3433	286645.455446932493	2115.3533723205
0	3442	287429.775551520316	2007.526218798
0	3453	288115.985785424737	1808.3345755935
0	3460	288503.772749053342	1441.2444854155
0	3469	289588.814027141808	1789.2785598524
0	3478	290359.801361756428	2189.7852977738
0	3491	291326.599972648576	2339.1012357082
0	3500	292194.66169020164	2472.6475121453
0	3505	292512.601838819712	2053.8738483097
0	3514	292898.824278730929	1572.2243060824
0	3525	294177.598900487676	1982.937210286
0	3534	294715.75374067764	2163.4649628773
0	3543	295255.959535203904	1816.8730511796
0	3552	296055.199417239085	1864.7846280131
0	3559	296488.832788355679	1632.859868696
0	3570	297649.424154125184	2127.4985341821
0	3579	298945.104082720385	2536.7244137451
0	3586	299390.734212426499	2135.2536621038
0	3595	300017.194629460604	1877.886168519
0	3604	300664.174469467283	1635.1927252952
0	3617	301818.461198313192	2381.5723477397
0	3626	302345.567193813652	2014.7867891472
0	3631	302836.701051006124	1793.7425302807
0	3642	303541.576662892506	1723.1154645793
0	3653	304320.285723824084	1974.7185300104
0	3662	304814.217000827223	1621.8476685695
0	3671	305407.871840056062	1781.6326871049
0	3676	306008.301489986509	1688.0157661624
0	3685	306591.429624985933	1777.2126241587
0	3694	307155.885455058918	1748.0136150029
0	3703	307853.973509604141	1573.0408481788
0	3712	308583.34021428603	1582.6269240584
0	3725	309647.037855349511	1858.8169475086
0	3732	310229.606280522451	1732.7414141502
0	3739	310795.322132483155	1715.2926657815
0	3748	311325.159603729874	1678.1217483804
0	3757	311853.316884487897	1579.0849525016
0	3768	313048.273091996118	1956.2428685836
0	3777	313602.555519668415	1885.4144226294
0	3784	314114.980549458444	1615.1592539158
0	3795	315544.793430157035	2352.9778703582
0	3802	316019.9603092857	1933.8290336542
0	3815	317056.676413212001	2125.9235172998
0	3820	317365.432193269983	1538.5859874543
0	3833	318120.824094722077	1901.2338498607
0	3838	318434.653142374038	1377.976729162
0	3849	319422.564393980459	1743.9998423215
0	3858	319934.536110470102	1813.712015748
0	3867	320794.32281353514	1992.1581381932
0	3874	321167.470970470489	1696.993692359
0	3883	322006.052561011196	1901.4427034184
0	3892	322478.981733927534	1671.2603918742
0	3901	323350.581728294523	1919.4477383047
0	3910	323804.867875110389	1648.0471093208
0	3923	324864.82984093021	1983.4661571309
0	3930	325575.624385010482	2114.0690983739
0	3937	326014.088908536391	1898.3885440975
0	3946	326947.513742884653	2082.6839019544
0	3957	328061.733889533238	2380.1281345077
0	3966	328759.159363573448	2259.0679048095
0	3973	329171.27195284705	1859.635537304
0	3984	329944.740382768245	1772.2065533046
0	3993	330379.88155684437	1546.0984177887
0	4000	331135.353592922942	1586.8530649692
0	4009	331879.123618640037	1925.5114980508
0	4020	333103.989021107586	2430.9744624887
0	4029	333970.875827316226	2414.6293404512
0	4038	334510.851053986729	2185.5813533999
0	4045	334821.149766538323	1693.296048604
0	4054	335826.201923517541	1854.7234280035
0	4065	336349.358801683441	1708.9078341611
0	4072	337087.04166887331	1946.6296171769
0	4083	337939.451142540232	1998.2874807436
0	4092	338599.236628878892	2042.5625750329
0	4101	339271.980322385237	1983.4640073124
0	4108	339672.858518315509	1661.095380038
0	4117	340589.114599535273	1913.2711776998
0	4128	341701.992650935457	2209.6831128001
0	4139	342562.765377061472	2255.1505240146
0	4144	342891.988170286671	1896.7165919021
0	4157	343961.316698603362	2108.9474694338
0	4166	344698.928979411751	2136.1636023503
0	4171	345084.713325323567	1854.0924916975
0	4180	345803.550169151307	1842.2334705479
0	4191	346495.938426582172	1797.0094471704
0	4198	346848.683651117637	1379.726113379
0	4209	347668.674481613591	1538.6827407405
0	4220	348554.969211202144	2018.2582350913
0	4229	349330.082561261981	2234.3957043719
0	4236	349807.43792108263	2023.0435919948
0	4243	350662.769612018048	2107.8004008159
0	4252	351495.118487114116	2165.0359258521
0	4263	352200.58289123702	2016.6800878476
0	4270	352666.129681561172	1752.894591121
0	4283	353810.938183916763	2230.9014511295
0	4290	354553.288289532096	2082.4603166431
0	4297	355184.301889222146	2004.164990969
0	4306	355785.315752914206	1974.3775689974
0	4315	356452.326477644996	1867.370931292
0	4328	357713.219126919315	2330.9998206329
0	4333	358106.860743742467	1932.392498944
0	4346	359281.928193289817	2325.2455552574
0	4355	360126.592684770033	2413.3735578507
0	4364	360885.744497878507	2349.3119849358
0	4369	361256.217602547288	1974.2894092575
0	4382	362400.686214538321	2274.0935297683
0	4391	363254.910836415395	2369.1663385369
0	4396	363599.198687821656	1954.0401499718
0	4407	364598.210313124612	2197.5240985863
0	4418	365296.772348787665	2041.8615123723
0	4423	365796.445487765625	1667.9241967387
0	4436	366874.429184524372	2149.9429583084
0	4445	367772.979481564864	2476.2071327772
0	4454	368271.352538466483	2107.9174549319
0	4461	369037.004365772038	2162.5751812477
0	4472	369846.477710315987	2073.4982287511
0	4477	370169.478131504759	1898.1255930383
0	4488	371258.400729903981	2101.4489189722
0	4499	372408.606278384134	2562.1285680681
0	4506	372944.23566260378	2248.7588703632
0	4517	373832.992257457256	2300.9409162216
0	4522	374134.819844830811	1726.2135664467
0	4533	375143.981062062114	2100.4889954813
0	4540	375568.120011873573	1735.1277544163
0	4551	376541.622199164733	1901.0633454658
0	4558	376910.723455343425	1569.9820279609
0	4567	377842.686552833795	1756.1077740043
0	4578	378866.718659363716	2235.2989512496
0	4585	379415.610617632075	1997.0230564009
0	4594	380343.989162659302	2127.6521519758
0	4603	381438.961225748091	2324.8072310351
0	4614	381974.034549482197	2083.5945784114
0	4621	382414.842774812162	1674.6048987843
0	4630	383222.441341728002	1745.4295519274
0	4643	384227.15872884731	2010.5630796868
0	4650	384831.413147924498	1852.8863942251
0	4659	385528.549431217864	2000.3463277593
0	4666	386250.942714465813	2023.7839856185
0	4679	387284.587058052452	2326.9971469883
0	4688	388034.294932382213	2187.4813077506
0	4695	388457.756768027352	1903.6005634815
0	4704	389287.328340578856	2002.7412825264
0	4715	390313.204100495236	2278.909168113
0	4722	390736.404329538377	2165.1979858987
0	4729	391532.721251528742	2090.6225337647
0	4738	392276.389522757413	1963.1854222622
0	4747	393189.927816018494	2133.2272283267
0	4760	394364.335592044549	2431.4820941538
0	4767	394810.385861992868	1979.1733196005
0	4774	395303.311040997537	1816.5801751893
0	4783	396241.258630855041	1876.9230388105
0	4792	396720.741391461374	1808.9445155114
0	4805	398129.895211569997	2338.262766134
0	4810	398453.054116247254	1803.0848145951
0	4823	399242.945750383692	1905.9057641309
0	4828	399570.684334449502	1440.7891228795
0	4839	400533.617806574361	1813.3640274871
0	4850	401399.920333782242	2156.9745833985
0	4859	402208.389125391872	2324.0160198882
0	4868	403040.791201684655	2377.898854902
0	4873	403408.648831816421	2008.7284980342
0	4882	404336.290970072181	2127.9018446803
0	4891	404678.028522804411	1637.2373211198
0	4900	405331.248614983665	1613.9625278302
0	4911	406142.766662081736	1694.3017825484
0	4922	406911.154902214217	1729.0522851516
0	4929	407667.995264427769	1941.6367212776
0	4936	408297.015790455076	2056.4640962519
0	4947	409128.829027852076	2217.6741256379
0	4956	409889.00049068037	2217.8118048236
0	4965	410589.977989951181	2138.8290015981
0	4976	411265.845305705475	1955.5565411691
0	4983	411957.871872978317	2025.5912794266
0	4994	412793.734492315012	2062.1050167829
0	5001	413658.328363252836	2392.4830575474
0	5008	414093.450253084334	1988.8307046611
0	5019	415112.971380259874	2319.2368879449
0	5028	416035.516928136381	2358.7756298482
0	5037	416758.357595326411	2356.3865713309
0	5044	417591.636515641617	2382.4214874767
0	5053	418221.748489653724	2171.9286196399
0	5062	418983.917134394901	2101.3636979274
0	5071	419670.442852797019	1891.4218640886
0	5080	420331.204038905012	1793.6440202873
0	5091	421187.550619756836	2059.6153574064
0	5098	421825.307093700427	1872.076518042
0	5107	422789.981768326868	1969.7275555227
0	5118	423485.431996593285	1916.272555897
0	5129	424732.330334605683	2303.3442498185
0	5138	425478.321223799173	2386.0730715562
0	5143	425954.068554053117	2101.0148457717
0	5152	426610.306086530943	1877.9757519253
0	5161	427272.627174714614	1794.3059509154
0	5170	428161.830991599743	1809.7861927003
0	5179	429035.462010512163	2094.4634977262
0	5188	429595.968910446425	1759.1437939089
0	5201	430718.265166645904	2149.1057001986
0	5206	431036.682516289909	1879.6418675222
0	5219	432123.710852209514	2226.7465643585
0	5228	433014.00037030693	2295.735203661
0	5237	433664.864191599226	2333.1000030041
0	5246	434549.486459651998	2425.7756074425
0	5253	435166.865660576186	2152.8652902693
0	5264	435981.798764644227	2316.934573045
0	5269	436441.164933750442	1891.6784740984
0	5282	437408.67415484976	2043.0763225537
0	5291	438127.295491006262	2145.496726362
0	5296	438680.069273756854	2002.4609733839
0	5309	439405.615837080441	1996.9416822307
0	5316	439924.622622365169	1797.3271313589
0	5323	440678.743881778829	1779.9894839991
0	5334	441663.388274190985	2257.7724371105
0	5345	442499.774426501282	2265.755622508
0	5350	443118.255506828465	2239.7768503055
0	5359	443684.884396847375	1947.3008133005
0	5368	444398.708337312602	1898.9339108113
0	5377	444891.77329125818	1547.044493258
0	5388	445835.147891566196	1910.2283705492
0	5395	446337.28258567866	1702.6385438628
0	5408	447192.65903988857	1989.0395191032
0	5415	447855.25706084449	1873.0901991483
0	5424	448632.577985432038	2041.6260526981
0	5435	449545.081780711228	2352.4227408227
0	5442	450272.286212956572	2351.1453805491
0	5451	450810.792832961346	2060.1362193469
0	5458	451610.720378346781	2065.6385976356
0	5467	452411.53765800413	2091.4232115727
0	5476	453342.598113091702	2322.8818195872
0	5489	454313.499277923296	2522.808583919
0	5494	454619.832056527997	2006.9571838249
0	5505	455586.742162518244	2123.0391909834
0	5516	456678.675033990333	2365.175756067
0	5523	457324.15064019155	2341.4567483123
0	5532	458006.570199038873	2144.0548364539
0	5541	458893.780791387002	2215.1057573967
0	5552	459748.989788023795	2254.9935470335
0	5557	460207.262775069143	1926.0101596825
0	5566	460696.889933338429	1631.620956352
0	5577	461430.241882894229	1681.2520948704
0	5588	462299.756916984956	1819.8430729564
0	5595	462818.488064780872	1788.4033170529
0	5604	463907.901842007454	2266.7198837735
0	5615	464741.410753922578	2441.6538369376
0	5624	465557.933589583304	2371.3423346635
0	5629	465885.614644316998	1900.306420913
0	5640	466906.162936566439	2164.7521826439
0	5651	467642.022855905857	2084.0892663226
0	5660	468464.790214318823	2116.007306613
0	5665	468839.972834335681	1881.4006232657
0	5678	470045.883433520835	2403.860577615
0	5687	470767.823316576	2303.0331022572
0	5694	471450.215762201737	2208.7614183314
0	5705	472250.498469919007	2204.6150363982
0	5714	473117.623586626764	2349.8002700508
0	5721	473742.403400363441	2208.9524444193
0	5728	474195.182876195799	1944.6844062768
0	5737	474907.166119432118	1789.5425328054
0	5746	475329.089024243917	1383.0093393568
0	5757	476335.859671281692	1756.7894906737
0	5766	476980.141669465269	1808.4997210186
0	5775	477702.550353342707	1854.2244238313
0	5782	478503.728607203852	2063.7341174763
0	5795	479458.142641559284	2391.1467638332
0	5804	480124.339116504457	2174.2244248744
0	5811	480808.452414069366	2096.3637672365
0	5820	481552.464479813394	2094.3218382541
0	5827	482279.740827810061	2155.4017113056
0	5840	483278.445689706173	2270.8582542837
0	5845	483616.253404179629	1776.7573835794
0	5854	484483.191036153626	1875.7593286224
0	5863	485320.919239567634	2042.4735498615
0	5872	486038.424969697412	1891.1502550822
0	5881	486499.997524078976	1486.7119871546
0	5892	487352.324429852929	1673.884631088
0	5899	488001.749684102874	1663.3332502563
0	5908	488678.025079937692	1834.1660136357
0	5921	489923.80196331073	2567.1196522191
0	5926	490294.17425254364	2071.1218354292
0	5939	491156.261283997488	2115.1460479014
0	5948	492051.155462488574	2127.3534991778
0	5955	492717.587020341349	2263.9050107449
0	5962	493226.563210040373	2070.3019260429
0	5971	493849.821561249015	1798.6660987604
0	5982	494917.968650395093	2187.5438560266
0	5991	495607.14225964625	2052.1263589617
0	6000	496181.831153389109	1875.8623932023
0	6011	497211.564589524684	2084.0768159833
0	6018	497917.118425341365	2286.8863210548
0	6029	498960.718081612182	2620.94987249
0	6034	499432.699479349	2221.1348898243
0	6043	500081.420332845343	1991.6641906835
0	6052	500695.240953052459	1734.5228714403
0	6061	501807.350861839993	2039.7434286308
0	6070	502350.899520702703	1959.3511335086
0	6083	503488.18182460968	2259.0647801757
0	6092	503989.454520307524	1927.0893496927
0	6097	504385.549075389324	1790.7339556608
0	6106	504969.148265523879	1480.9664409142
0	6115	505601.498710596976	1612.0441902895
0	6124	506543.560993345497	1849.3898078799
0	6137	507860.794176952956	2418.8866321463
0	6142	508379.461662378205	2181.1867226847
0	6151	509237.728322669906	2144.3709894083
0	6160	509558.419956453187	1697.6257795002
0	6173	510819.453130569352	2097.3761360161
0	6178	511203.655434027357	1809.1065265238
0	6187	511650.313608627809	1401.1320005637
0	6200	512644.473184878049	1825.0200543087
0	6209	513333.37761894804	2060.7042626012
0	6216	514086.866612965283	2178.1254659872
0	6225	514802.281644707588	2157.8084598295
0	6232	515257.161269942341	1923.7836509943
0	6241	515871.30606682044	1679.3086230755
0	6254	517263.462343812032	2363.9891905244
0	6261	517943.679238949014	2286.8215391412
0	6272	518811.152730602815	2294.4522227626
0	6279	519363.48662101668	2100.0242772046
0	6286	519993.106743693395	2007.222850481
0	6297	520833.193498849913	2022.0407682471
0	6308	521793.058068444997	2247.1080387477
0	6315	522220.280654076531	1940.1205253787
0	6322	522557.169254869267	1577.9805952683
0	6331	523305.45667209667	1512.3986036517
0	6340	523983.209973759994	1561.9438420516
0	6349	524735.148119973064	1770.8317812067
0	6360	525753.279935661749	2175.1448884606
0	6363	526075.422747200401	1628.8986351807
0	6376	527060.900623491079	1780.068124691
0	6385	527943.17801278089	1813.874667557
0	6394	528963.258014665962	2203.1069960911
0	6403	529526.809352589816	1902.2033788729
0	6412	530002.883051941217	1495.3209647443
0	6423	531238.417557813273	1905.2200684324
0	6434	531881.065188255208	2107.9631367233
0	6443	532427.819831902208	1924.9907151796
0	6450	533061.299017304601	1763.2165269926
0	6457	533747.550213988918	1866.4850257337
0	6470	534690.902161365422	2263.0823294632
0	6477	535506.196255842271	2372.1206794493
0	6488	536256.723695481243	2434.3523545191
0	6495	536975.029520317959	2284.1273589525
0	6504	537809.651022590744	2301.5207035001
0	6515	538701.756047923165	2445.0323524419
0	6520	539115.644477913203	2052.655720152
0	6533	540239.623799733865	2405.073888693
0	6542	541121.24834032734	2419.4922924042
0	6547	541455.197799392092	2115.4306794517
0	6556	542173.214329546365	1933.5905298125
0	6565	543120.776763092774	1999.5284227654
0	6578	543840.557615831542	1932.9926441889
0	6587	544720.491256099242	1993.0292977486
0	6594	545373.075996525633	2117.2057198361
0	6603	546132.993310829672	2292.4356949981
0	6610	546943.378935148987	2222.8876790497
0	6621	547581.936663854915	2083.05637585
0	6632	548565.590201178613	2371.6787395533
0	6637	549114.106501406106	2090.5825316906
0	6646	549828.477998357314	2119.2060019355
0	6655	550518.27021287759	1952.680011699
0	6668	551522.813624935272	2164.8458871525
0	6673	551921.710364380899	1893.9098769799
0	6682	553101.521680550697	2445.2079774812
0	6695	554035.252189636278	2512.438564701
0	6702	554568.144629197243	2168.1009006221
0	6711	555431.296992860782	2226.5980599448
0	6718	555843.051373260143	1807.7991836239
0	6731	557031.947106588679	2228.7224630825
0	6738	557733.522943267646	2231.4823624212
0	6747	558147.285421192694	1824.5394880883
0	6754	559029.443896282512	1997.4967896938
0	6763	559560.514270747128	1765.9962531645
0	6772	560248.892034636858	1738.0436183419
0	6781	561214.626736845869	1953.8959926926
0	6792	562277.764717536096	2155.3492845967
0	6799	562707.691269787077	1789.2664991319
0	6808	563796.927573205952	2173.6531833652
0	6819	564728.541609132712	2415.5652284157
0	6830	565742.990878690084	2644.0023535397
0	6839	566403.415298368832	2435.6511203572
0	6848	567129.892666311985	2282.758662058
0	6855	567598.933275695941	1855.9423970059
0	6862	568286.802735412544	1883.3874370437
0	6871	568765.636805305308	1635.7441389933
0	6880	569381.393324956348	1473.6361294985
0	6891	570825.964481011084	2294.0078367479
0	6902	571619.213357521272	2250.6367122754
0	6911	572514.684882899797	2261.3323790487
0	6918	573177.096593286893	2170.1503298711
0	6927	573963.825284130922	2344.6119266096
0	6936	575012.549895001626	2497.8650121018
0	6947	575761.087843962064	2404.6831151471
0	6952	576158.88866102328	2022.4827552214
0	6963	577222.371620312383	2198.0269228108
0	6972	578322.583177126994	2561.4953331649
0	6983	579020.919687347536	2375.2788581885
0	6990	579756.716458685746	2213.9686882496
0	6999	580275.012620491957	1867.0936048497
0	7010	581088.445089524662	2067.5254021771
0	7019	581907.113691419413	2019.2104800604
0	7028	582677.797554899057	2175.6177261472
0	7037	583482.911805762028	2394.4667162374
0	7044	584092.379680322533	2185.2659889031
0	7055	584982.858004281347	2305.0604493823
0	7062	585713.577166479131	2230.6653607171
0	7069	586325.681988615593	2191.1143883597
0	7078	587120.741797378337	2137.883793097
0	7087	587823.132217722064	1947.397827683
0	7096	588362.327842460996	1680.8342340868
0	7109	589447.74371716199	1918.5262574349
0	7116	589842.010589316539	1884.9952706136
0	7125	591106.672751996717	2348.9105029497
0	7136	592013.894998328811	2566.1512811668
0	7143	592761.198945483244	2509.5491768327
0	7152	593424.392226291871	2277.417329466
0	7159	593982.624812889895	1968.7298145611
0	7170	594994.771344959787	2112.8196941223
0	7177	595982.222823612443	2422.9079049546
0	7190	596604.803229728765	2237.827988388
0	7197	597181.055423989943	1927.5133199058
0	7208	597787.584272772125	1714.284415869
0	7217	598449.674318963713	1844.8710892349
0	7224	599223.655422264761	1874.6497521177
0	7233	599986.412852676637	2198.8285799045
0	7240	600680.831657303549	2231.1573383398
0	7253	601752.566070249356	2407.1955767926
0	7260	602391.561801452242	2181.2548203394
0	7267	602800.136342318781	1710.0404670462
0	7278	603942.231279099412	2189.6652088501
0	7287	604572.515323944442	2165.9709144384
1	3120	260582.329585030701	345
1	3129	261514.769382169496	346
1	3138	262116.008508112308	347
1	3145	262581.924678990644	348
1	3154	263175.096678547587	349
1	3167	264104.251359868821	350
1	3174	264914.61403733122	351
1	3185	265760.065408190739	352
1	3190	266101.523787388605	353
1	3199	267155.706312367719	354
1	3208	268121.88388179059	355
1	3217	268863.178134430226	356
1	3230	269732.65523635785	357
1	3239	270412.479278398705	358
1	3246	270738.628424936933	359
1	3249	271168.433249462423	360
1	3262	272737.508686725078	361
1	3271	273296.369602996884	362
1	3280	273882.54196741621	363
1	3291	274921.487121144337	364
1	3298	275572.344520082725	365
1	3309	276583.183236513315	366
1	3316	277310.951023595436	367
1	3325	278081.113416608451	368
1	3334	278555.849719187273	369
1	3343	279073.800434265313	370
1	3352	279652.282265480636	371
1	3361	280705.770151270581	372
1	3374	281741.627064440428	373
1	3379	282059.970123181148	374
1	3392	283079.27454644817	375
1	3397	283576.498413831024	376
1	3406	284251.973981363728	377
1	3417	285318.648710148438	378
1	3428	286307.651209831266	379
1	3433	286645.455446932493	380
1	3442	287429.775551520316	381
1	3453	288115.985785424737	382
1	3460	288503.772749053342	383
1	3469	289588.814027141808	384
1	3478	290359.801361756428	385
1	3491	291326.599972648576	386
1	3500	292194.66169020164	387
1	3505	292512.601838819712	388
1	3514	292898.824278730929	389
1	3525	294177.598900487676	390
1	3534	294715.75374067764	391
1	3543	295255.959535203904	392
1	3552	296055.199417239085	393
1	3559	296488.832788355679	394
1	3570	297649.424154125184	395
1	3579	298945.104082720385	396
1	3586	299390.734212426499	397
1	3595	300017.194629460604	398
1	3604	300664.174469467283	399
1	3617	301818.461198313192	400
1	3626	302345.567193813652	401
1	3631	302836.701051006124	402
1	3642	303541.576662892506	403
1	3653	304320.285723824084	404
1	3662	304814.217000827223	405
1	3671	305407.871840056062	406
1	3676	306008.301489986509	407
1	3685	306591.429624985933	408
1	3694	307155.885455058918	409
1	3703	307853.973509604141	410
1	3712	308583.34021428603	411
1	3725	309647.037855349511	412
1	3732	310229.606280522451	413
1	3739	310795.322132483155	414
1	3748	311325.159603729874	415
1	3757	311853.316884487897	416
1	3768	313048.273091996118	417
1	3777	313602.555519668415	418
1	3784	314114.980549458444	419
1	3795	315544.793430157035	420
1	3802	316019.9603092857	421
1	3815	317056.676413212001	422
1	3820	317365.432193269983	423
1	3833	318120.824094722077	424
1	3838	318434.653142374038	425
1	3849	319422.564393980459	426
1	3858	319934.536110470102	427
1	3867	320794.32281353514	428
1	3874	321167.470970470489	429
1	3883	322006.052561011196	430
1	3892	322478.981733927534	431
1	3901	323350.581728294523	432
1	3910	323804.867875110389	433
1	3923	324864.82984093021	434
1	3930	325575.624385010482	435
1	3937	326014.088908536391	436
1	3946	326947.513742884653	437
1	3957	328061.733889533238	438
1	3966	328759.159363573448	439
1	3973	329171.27195284705	440
1	3984	329944.740382768245	441
1	3993	330379.88155684437	442
1	4000	331135.353592922942	443
1	4009	331879.123618640037	444
1	4020	333103.989021107586	445
1	4029	333970.875827316226	446
1	4038	334510.851053986729	447
1	4045	334821.149766538323	448
1	4054	335826.201923517541	449
1	4065	336349.358801683441	450
1	4072	337087.04166887331	451
1	4083	337939.451142540232	452
1	4092	338599.236628878892	453
1	4101	339271.980322385237	454
1	4108	339672.858518315509	455
1	4117	340589.114599535273	456
1	4128	341701.992650935457	457
1	4139	342562.765377061472	458
1	4144	342891.988170286671	459
1	4157	343961.316698603362	460
1	4166	344698.928979411751	461
1	4171	345084.713325323567	462
1	4180	345803.550169151307	463
1	4191	346495.938426582172	464
1	4198	346848.683651117637	465
1	4209	347668.674481613591	466
1	4220	348554.969211202144	467
1	4229	349330.082561261981	468
1	4236	349807.43792108263	469
1	4243	350662.769612018048	470
1	4252	351495.118487114116	471
1	4263	352200.58289123702	472
1	4270	352666.129681561172	473
1	4283	353810.938183916763	474
1	4290	354553.288289532096	475
1	4297	355184.301889222146	476
1	4306	355785.315752914206	477
1	4315	356452.326477644996	478
1	4328	357713.219126919315	479
1	4333	358106.860743742467	480
1	4346	359281.928193289817	481
1	4355	360126.592684770033	482
1	4364	360885.744497878507	483
1	4369	361256.217602547288	484
1	4382	362400.686214538321	485
1	4391	363254.910836415395	486
1	4396	363599.198687821656	487
1	4407	364598.210313124612	488
1	4418	365296.772348787665	489
1	4423	365796.445487765625	490
1	4436	366874.429184524372	491
1	4445	367772.979481564864	492
1	4454	368271.352538466483	493
1	4461	369037.004365772038	494
1	4472	369846.477710315987	495
1	4477	370169.478131504759	496
1	4488	371258.400729903981	497
1	4499	372408.606278384134	498
1	4506	372944.23566260378	499
1	4517	373832.992257457256	500
1	4522	374134.819844830811	501
1	4533	375143.981062062114	502
1	4540	375568.120011873573	503
1	4551	376541.622199164733	504
1	4558	376910.723455343425	505
1	4567	377842.686552833795	506
1	4578	378866.718659363716	507
1	4585	379415.610617632075	508
1	4594	380343.989162659302	509
1	4603	381438.961225748091	510
1	4614	381974.034549482197	511
1	4621	382414.842774812162	512
1	4630	383222.441341728002	513
1	4643	384227.15872884731	514
1	4650	384831.413147924498	515
1	4659	385528.549431217864	516
1	4666	386250.942714465813	517
1	4679	387284.587058052452	518
1	4688	388034.294932382213	519
1	4695	388457.756768027352	520
1	4704	389287.328340578856	521
1	4715	390313.204100495236	522
1	4722	390736.404329538377	523
1	4729	391532.721251528742	524
1	4738	392276.389522757413	525
1	4747	393189.927816018494	526
1	4760	394364.335592044549	527
1	4767	394810.385861992868	528
1	4774	395303.311040997537	529
1	4783	396241.258630855041	530
1	4792	396720.741391461374	531
1	4805	398129.895211569997	532
1	4810	398453.054116247254	533
1	4823	399242.945750383692	534
1	4828	399570.684334449502	535
1	4839	400533.617806574361	536
1	4850	401399.920333782242	537
1	4859	402208.389125391872	538
1	4868	403040.791201684655	539
1	4873	403408.648831816421	540
1	4882	404336.290970072181	541
1	4891	404678.028522804411	542
1	4900	405331.248614983665	543
1	4911	406142.766662081736	544
1	4922	406911.154902214217	545
1	4929	407667.995264427769	546
1	4936	408297.015790455076	547
1	4947	409128.829027852076	548
1	4956	409889.00049068037	549
1	4965	410589.977989951181	550
1	4976	411265.845305705475	551
1	4983	411957.871872978317	552
1	4994	412793.734492315012	553
1	5001	413658.328363252836	554
1	5008	414093.450253084334	555
1	5019	415112.971380259874	556
1	5028	416035.516928136381	557
1	5037	416758.357595326411	558
1	5044	417591.636515641617	559
1	5053	418221.748489653724	560
1	5062	418983.917134394901	561
1	5071	419670.442852797019	562
1	5080	420331.204038905012	563
1	5091	421187.550619756836	564
1	5098	421825.307093700427	565
1	5107	422789.981768326868	566
1	5118	423485.431996593285	567
1	5129	424732.330334605683	568
1	5138	425478.321223799173	569
1	5143	425954.068554053117	570
1	5152	426610.306086530943	571
1	5161	427272.627174714614	572
1	5170	428161.830991599743	573
1	5179	429035.462010512163	574
1	5188	429595.968910446425	575
1	5201	430718.265166645904	576
1	5206	431036.682516289909	577
1	5219	432123.710852209514	578
1	5228	433014.00037030693	579
1	5237	433664.864191599226	580
1	5246	434549.486459651998	581
1	5253	435166.865660576186	582
1	5264	435981.798764644227	583
1	5269	436441.164933750442	584
1	5282	437408.67415484976	585
1	5291	438127.295491006262	586
1	5296	438680.069273756854	587
1	5309	439405.615837080441	588
1	5316	439924.622622365169	589
1	5323	440678.743881778829	590
1	5334	441663.388274190985	591
1	5345	442499.774426501282	592
1	5350	443118.255506828465	593
1	5359	443684.884396847375	594
1	5368	444398.708337312602	595
1	5377	444891.77329125818	596
1	5388	445835.147891566196	597
1	5395	446337.28258567866	598
1	5408	447192.65903988857	599
1	5415	447855.25706084449	600
1	5424	448632.577985432038	601
1	5435	449545.081780711228	602
1	5442	450272.286212956572	603
1	5451	450810.792832961346	604
1	5458	451610.720378346781	605
1	5467	452411.53765800413	606
1	5476	453342.598113091702	607
1	5489	454313.499277923296	608
1	5494	454619.832056527997	609
1	5505	455586.742162518244	610
1	5516	456678.675033990333	611
1	5523	457324.15064019155	612
1	5532	458006.570199038873	613
1	5541	458893.780791387002	614
1	5552	459748.989788023795	615
1	5557	460207.262775069143	616
1	5566	460696.889933338429	617
1	5577	461430.241882894229	618
1	5588	462299.756916984956	619
1	5595	462818.488064780872	620
1	5604	463907.901842007454	621
1	5615	464741.410753922578	622
1	5624	465557.933589583304	623
1	5629	465885.614644316998	624
1	5640	466906.162936566439	625
1	5651	467642.022855905857	626
1	5660	468464.790214318823	627
1	5665	468839.972834335681	628
1	5678	470045.883433520835	629
1	5687	470767.823316576	630
1	5694	471450.215762201737	631
1	5705	472250.498469919007	632
1	5714	473117.623586626764	633
1	5721	473742.403400363441	634
1	5728	474195.182876195799	635
1	5737	474907.166119432118	636
1	5746	475329.089024243917	637
1	5757	476335.859671281692	638
1	5766	476980.141669465269	639
1	5775	477702.550353342707	640
1	5782	478503.728607203852	641
1	5795	479458.142641559284	642
1	5804	480124.339116504457	643
1	5811	480808.452414069366	644
1	5820	481552.464479813394	645
1	5827	482279.740827810061	646
1	5840	483278.445689706173	647
1	5845	483616.253404179629	648
1	5854	484483.191036153626	649
1	5863	485320.919239567634	650
1	5872	486038.424969697412	651
1	5881	486499.997524078976	652
1	5892	487352.324429852929	653
1	5899	488001.749684102874	654
1	5908	488678.025079937692	655
1	5921	489923.80196331073	656
1	5926	490294.17425254364	657
1	5939	491156.261283997488	658
1	5948	492051.155462488574	659
1	5955	492717.587020341349	660
1	5962	493226.563210040373	661
1	5971	493849.821561249015	662
1	5982	494917.968650395093	663
1	5991	495607.14225964625	664
1	6000	496181.831153389109	665
1	6011	497211.564589524684	666
1	6018	497917.118425341365	667
1	6029	498960.718081612182	668
1	6034	499432.699479349	669
1	6043	500081.420332845343	670
1	6052	500695.240953052459	671
1	6061	501807.350861839993	672
1	6070	502350.899520702703	673
1	6083	503488.18182460968	674
1	6092	503989.454520307524	675
1	6097	504385.549075389324	676
1	6106	504969.148265523879	677
1	6115	505601.498710596976	678
1	6124	506543.560993345497	679
1	6137	507860.794176952956	680
1	6142	508379.461662378205	681
1	6151	509237.728322669906	682
1	6160	509558.419956453187	683
1	6173	510819.453130569352	684
1	6178	511203.655434027357	685
1	6187	511650.313608627809	686
1	6200	512644.473184878049	687
1	6209	513333.37761894804	688
1	6216	514086.866612965283	689
1	6225	514802.281644707588	690
1	6232	515257.161269942341	691
1	6241	515871.30606682044	692
1	6254	517263.462343812032	693
1	6261	517943.679238949014	694
1	6272	518811.152730602815	695
1	6279	519363.48662101668	696
1	6286	519993.106743693395	697
1	6297	520833.193498849913	698
1	6308	521793.058068444997	699
1	6315	522220.280654076531	700
1	6322	522557.169254869267	701
1	6331	523305.45667209667	702
1	6340	523983.209973759994	703
1	6349	524735.148119973064	704
1	6360	525753.279935661749	705
1	6363	526075.422747200401	706
1	6376	527060.900623491079	707
1	6385	527943.17801278089	708
1	6394	528963.258014665962	709
1	6403	529526.809352589816	710
1	6412	530002.883051941217	711
1	6423	531238.417557813273	712
1	6434	531881.065188255208	713
1	6443	532427.819831902208	714
1	6450	533061.299017304601	715
1	6457	533747.550213988918	716
1	6470	534690.902161365422	717
1	6477	535506.196255842271	718
1	6488	536256.723695481243	719
1	6495	536975.029520317959	720
1	6504	537809.651022590744	721
1	6515	538701.756047923165	722
1	6520	539115.644477913203	723
1	6533	540239.623799733865	724
1	6542	541121.24834032734	725
1	6547	541455.197799392092	726
1	6556	542173.214329546365	727
1	6565	543120.776763092774	728
1	6578	543840.557615831542	729
1	6587	544720.491256099242	730
1	6594	545373.075996525633	731
1	6603	546132.993310829672	732
1	6610	546943.378935148987	733
1	6621	547581.936663854915	734
1	6632	548565.590201178613	735
1	6637	549114.106501406106	736
1	6646	549828.477998357314	737
1	6655	550518.27021287759	738
1	6668	551522.813624935272	739
1	6673	551921.710364380899	740
1	6682	553101.521680550697	741
1	6695	554035.252189636278	742
1	6702	554568.144629197243	743
1	6711	555431.296992860782	744
1	6718	555843.051373260143	745
1	6731	557031.947106588679	746
1	6738	557733.522943267646	747
1	6747	558147.285421192694	748
1	6754	559029.443896282512	749
1	6763	559560.514270747128	750
1	6772	560248.892034636858	751
1	6781	561214.626736845869	752
1	6792	562277.764717536096	753
1	6799	562707.691269787077	754
1	6808	563796.927573205952	755
1	6819	564728.541609132712	756
1	6830	565742.990878690084	757
1	6839	566403.415298368832	758
1	6848	567129.892666311985	759
1	6855	567598.933275695941	760
1	6862	568286.802735412544	761
1	6871	568765.636805305308	762
1	6880	569381.393324956348	763
1	6891	570825.964481011084	764
1	6902	571619.213357521272	765
1	6911	572514.684882899797	766
1	6918	573177.096593286893	767
1	6927	573963.825284130922	768
1	6936	575012.549895001626	769
1	6947	575761.087843962064	770
1	6952	576158.88866102328	771
1	6963	577222.371620312383	772
1	6972	578322.583177126994	773
1	6983	579020.919687347536	774
1	6990	579756.716458685746	775
1	6999	580275.012620491957	776
1	7010	581088.445089524662	777
1	7019	581907.113691419413	778
1	7028	582677.797554899057	779
1	7037	583482.911805762028	780
1	7044	584092.379680322533	781
1	7055	584982.858004281347	782
1	7062	585713.577166479131	783
1	7069	586325.681988615593	784
1	7078	587120.741797378337	785
1	7087	587823.132217722064	786
1	7096	588362.327842460996	787
1	7109	589447.74371716199	788
1	7116	589842.010589316539	789
1	7125	591106.672751996717	790
1	7136	592013.894998328811	791
1	7143	592761.198945483244	792
1	7152	593424.392226291871	793
1	7159	593982.624812889895	794
1	7170	594994.771344959787	795
1	7177	595982.222823612443	796
1	7190	596604.803229728765	797
1	7197	597181.055423989943	798
1	7208	597787.584272772125	799
1	7217	598449.674318963713	800
1	7224	599223.655422264761	801
1	7233	599986.412852676637	802
1	7240	600680.831657303549	803
1	7253	601752.566070249356	804
1	7260	602391.561801452242	805
1	7267	602800.136342318781	806
1	7278	603942.231279099412	807
1	7287	604572.515323944442	808

