version 2
run Pipelined_3Teachers-31-20190105-10:57:24-12376
attr configname Pipelined_3Teachers
attr datetime 20190105-10:57:24
attr experiment Pipelined_3Teachers
attr inifile ../simulations/omnetpp.ini
attr iterationvars "$0=\"uniform\""
attr iterationvarsf uniform-
attr measurement "$0=\"uniform\""
attr network PipelinedExamSession
attr processid 12376
attr repetition 31
attr replication #31
attr resultdir results
attr runnumber 31
attr seedset 31
param **.teachersNumber 3
param **.answerTimeDistribution "\"uniform\""
param **.minUniform 300
param **.maxUniform 900
param **.scaleLognormal 6.2854
param **.shapeLognormal 0.4724

vector 0 PipelinedExamSession examinationTime:vector ETV
attr source examFinished
vector 1 PipelinedExamSession studentID:vector ETV
attr source student
0	3199	260339.641124010102	1888.3058643434
0	3208	261365.984901040808	2250.8554402739
0	3219	261925.860499497519	1952.7099642903
0	3230	262924.276365386338	2346.3504394982
0	3235	263506.96838968435	2080.3957464639
0	3244	264174.753933772461	1908.797133062
0	3253	265058.086036797629	2133.8096714113
0	3264	265992.118457006307	2214.0606134199
0	3273	266550.459370063634	1879.4386764988
0	3280	266963.797116559015	1690.9384584054
0	3291	267952.61146696286	1956.3028253149
0	3298	268480.841357354091	1670.4354462214
0	3309	269499.773768847824	1963.0508748349
0	3316	270262.266101315633	2074.4125556666
0	3327	271057.218322623537	2201.4468629379
0	3334	271888.500366266833	2270.9061970934
0	3343	272546.559194661692	2046.3169044815
0	3354	273409.294710075498	2167.7648427431
0	3361	273921.532859886081	1781.1608778778
0	3372	275117.97984084116	2373.2304437086
0	3379	275419.852744415418	1833.9841648936
0	3388	276348.733184253813	1944.3818557542
0	3397	276837.877329066411	1689.558720449
0	3408	277960.739344451592	2228.1013214495
0	3415	278529.22446057202	1915.2611166704
0	3424	279339.25457037987	1944.2795115989
0	3435	280375.890977634133	2236.7010441609
0	3444	281101.968454476462	2217.4550379161
0	3451	281793.525290256382	2027.0064050797
0	3464	282990.190803771855	2334.4227871858
0	3469	283352.632642071711	1874.072644813
0	3482	284543.034156365337	2427.7677212376
0	3487	285017.548058135452	2027.3572543636
0	3500	286191.145643871295	2368.73115208
0	3507	286926.025700708869	2382.9915443435
0	3514	287453.774105245265	2096.9590543304
0	3527	288324.830928118917	2133.6852842476
0	3534	288998.628008784744	1988.3888016455
0	3545	289693.529485026392	2196.1631930899
0	3550	290002.01800279321	1677.1870746743
0	3563	291065.039609838295	1889.6678079385
0	3572	291601.573992474023	1908.0445074476
0	3581	292417.763237888012	2086.9016150013
0	3586	292832.42481490599	1767.3852050677
0	3599	293979.656544327755	2378.0825518537
0	3606	294380.618138099108	1962.8549002111
0	3615	295108.419708441962	1813.9330644161
0	3622	295787.316286051665	1807.6597417239
0	3631	296479.234066838418	1938.1473900285
0	3640	297258.073000889292	2047.3184231669
0	3653	298396.571113960838	2417.0031100977
0	3662	298994.668333372122	2135.7968468685
0	3667	299439.303920790574	1815.0312605314
0	3680	300312.418916635237	1915.8478026744
0	3687	300869.813378015555	1875.1450446434
0	3698	302026.814889768161	2356.0345872771
0	3703	302332.874653302156	2020.4557366669
0	3712	303217.29845479133	2065.4383852612
0	3721	304319.364150892965	2292.5492611248
0	3734	305335.621516406559	2445.9774961229
0	3741	306063.712409092136	2279.5051789843
0	3750	306862.379743158841	2379.3508843984
0	3761	307840.400665579387	2504.7791491728
0	3770	308537.921176571422	2325.5957391579
0	3777	308963.803870836296	1877.0557967015
0	3786	309813.523200480291	1973.1225349009
0	3795	310840.201882598944	2302.2807060275
0	3804	311519.477027189009	2147.317098733
0	3813	312449.692208832153	2378.1382797752
0	3824	313194.790220120945	2304.356569564
0	3833	313834.326048614481	2055.5711135734
0	3840	314609.324709372619	2106.4561676234
0	3847	314982.118889875734	1787.3286697548
0	3860	315949.004390649521	2114.678342035
0	3869	316614.588718023175	1939.4881364889
0	3876	317290.475008590171	1974.969872972
0	3885	317786.820505745732	1837.8161150962
0	3894	318811.603861721256	2197.0151436981
0	3901	319521.248132921779	2060.4691468645
0	3914	320369.446098106006	2061.2441428006
0	3921	320761.617144104117	1911.3980733789
0	3932	321911.489375168482	2258.5747945122
0	3941	322486.727855773667	2117.2817576677
0	3946	322859.987313766057	1758.4761531092
0	3959	324115.828799642646	2204.3394244742
0	3966	324687.956460798183	2201.2286050245
0	3977	325518.301874818304	2218.78288812
0	3986	326353.39385052214	2237.5650508795
0	3991	327008.874712837884	2153.6603094544
0	4000	327390.817692875886	1872.5158180576
0	4011	328266.811738349521	1913.4178878274
0	4018	328975.387310888642	1889.5196964964
0	4031	329839.750729082176	2316.6679152288
0	4040	330544.700014824071	2243.0265240837
0	4049	331336.632295651385	2277.7815347537
0	4054	331829.21052728782	1989.4597982056
0	4063	332695.928833773384	2151.2288189493
0	4076	333675.231664627814	2338.5993689764
0	4081	334142.522688629129	1937.2387158684
0	4092	334967.020395118767	1873.9131816197
0	4099	335437.769214436435	1762.5375498086
0	4110	336566.483050491684	2244.9342272244
0	4119	336990.314986137696	1997.9377317242
0	4126	337441.166923334845	1651.3456437271
0	4139	338351.703617395856	1778.4269289114
0	4148	339174.739151727431	2171.452779416
0	4157	339731.73774252648	1929.2154631577
0	4166	340262.203673366481	1910.5000559706
0	4175	341083.303833520064	1908.5646817926
0	4180	341685.938941128576	1954.2011986021
0	4191	342459.788702381799	2197.5850290153
0	4198	343178.686878830219	2095.3830453102
0	4209	343977.11684131066	2055.532312626
0	4218	344696.489980816866	1892.0190126635
0	4229	345742.670019809182	2166.5123072919
0	4236	346235.662216600056	1904.1443383321
0	4243	346540.831669606294	1662.2714661062
0	4252	347643.099734606247	1900.4297147971
0	4263	348914.020832441773	2504.3935916852
0	4270	349551.418481022145	2281.1290423851
0	4281	350570.367633830782	2444.4629348349
0	4288	350881.188797671374	1861.8855143432
0	4299	351804.838838987078	1931.445664214
0	4306	352517.012070352238	1928.2936633565
0	4315	353243.610491836469	1837.3940535821
0	4328	354248.312844894852	2183.2946931012
0	4337	355049.839838454525	2127.0020705648
0	4344	355795.017419289823	2107.4900935404
0	4353	356225.52756266671	1977.2147177719
0	4360	357164.924515737246	2115.0846772827
0	4371	358216.130001330773	2410.600447515
0	4382	359133.629864221464	2487.956935633
0	4391	359985.729519696932	2570.194456866
0	4398	360817.029251810189	2525.5175863858
0	4407	361683.998467493828	2550.3686032724
0	4416	362097.41019364449	2111.6806739476
0	4423	362701.826803945031	1818.0140165146
0	4434	364019.340629316893	2311.2715850584
0	4443	364659.603269537938	2127.7016112115
0	4452	365409.840467758504	2209.8360769451
0	4459	365796.499437605989	1771.4400258847
0	4470	366876.441375352469	2214.6377129015
0	4479	367531.969270901781	2081.8158541806
0	4486	368224.221665225951	2150.3382291645
0	4495	368775.62754792164	1870.2911888715
0	4500	369187.606670754059	1454.2505044956
0	4513	370656.787080690293	2273.0102465954
0	4522	371174.903495097561	1964.102745289
0	4531	371976.048038480831	1906.2899141572
0	4540	372882.336560077994	2087.2777945362
0	4553	373759.039965597941	2128.3292389009
0	4560	374503.586399741499	2254.911326291
0	4571	375017.040579998894	2041.0822359379
0	4580	375604.045856231852	1845.0058906339
0	4585	376277.235246403171	1771.9414093997
0	4598	377267.092520976468	2250.0519409776
0	4605	378052.750588255032	2448.7047320232
0	4616	378823.335248138785	2369.7012236807
0	4625	379448.832828272164	2181.7403072957
0	4632	380208.058717288107	2139.1439180821
0	4643	380923.885277844995	2100.5500297062
0	4652	381437.177546415508	1988.3447181433
0	4661	382204.708441207215	1964.9106144905
0	4670	383045.92255661267	2122.0372787677
0	4679	383618.472260981828	2181.2947145663
0	4686	384361.245094751969	2156.5366535448
0	4693	384955.333861336142	1909.4113047235
0	4702	385344.72645088102	1726.2541898992
0	4711	386567.832697229491	2168.658839073
0	4722	387106.251618498968	2040.0452740956
0	4729	387871.548272436516	1970.7636774983
0	4742	388824.42932976413	2153.6714776419
0	4749	389352.826365083488	1832.4049074668
0	4758	390117.926112748715	1928.3145597205
0	4767	391008.118397975373	2183.6890682112
0	4774	391611.94146727215	1985.6312627904
0	4783	392755.745109077576	2341.7869071476
0	4794	393387.942759180474	2228.1483249273
0	4803	394092.694909265297	2068.0384857114
0	4812	394602.210791688444	1677.7659136802
0	4821	395544.566483795675	2057.9490511212
0	4828	396172.935423022168	1935.5446654838
0	4837	396562.140885600852	1577.8194841929
0	4846	397509.541505249249	1710.9569000546
0	4857	398765.2022566181	2302.4067360442
0	4866	399653.927253093603	2300.1806500833
0	4873	400076.816725730928	1890.1809286326
0	4882	400786.482480727169	1927.7959019411
0	4891	401390.242261625859	1691.2367752288
0	4902	402402.98963938843	1934.4961959869
0	4911	402856.281420355696	1834.5874022227
0	4920	403577.115897182408	1883.5131044034
0	4927	404298.34526642229	1842.1840087976
0	4936	405080.50422552045	1992.2606411856
0	4947	405852.559414180028	1904.6358645894
0	4956	406710.74955230582	1922.2193362657
0	4967	407443.051457963916	2026.0820549447
0	4972	407884.166031377422	2023.1139745563
0	4981	408456.485134502905	1738.2774196565
0	4990	409254.951794771509	1811.9003368076
0	5001	410049.207633733781	1946.3901816867
0	5010	410706.677381554651	2041.0520128906
0	5019	411328.739292221176	1916.5752969682
0	5026	412158.524684747713	2105.3670412861
0	5037	412805.896006152066	2003.8099490572
0	5044	413127.119415672528	1590.4124708846
0	5057	414176.140115596386	1911.3965107128
0	5064	414919.492539810049	1900.9804230183
0	5073	415355.012602033125	1827.6269097347
0	5084	416250.045180693301	2073.9050650969
0	5089	416608.99176928218	1602.6764511131
0	5100	417691.925680730525	2071.6144763399
0	5111	418605.1258277614	2355.0806470681
0	5116	418969.278933852944	2121.3655413128
0	5125	419773.680061055381	2029.4174444396
0	5134	420363.019827380809	1757.8939996194
0	5143	420920.099193742531	1605.6583740748
0	5154	421502.150938706505	1562.2423055582
0	5163	422497.674182988735	1982.0481981151
0	5172	423267.507710913228	2210.0810484029
0	5181	423997.818153770673	2112.739067059
0	5188	424524.618571065399	1965.7473399304
0	5201	425135.033869044888	1775.788178388
0	5208	425757.287380378726	1558.1093965564
0	5215	426221.986348181996	1498.0702850036
0	5226	427553.578203404356	2418.5443343595
0	5237	428383.629628876258	2389.2664207611
0	5246	429230.820612469722	2369.4623799529
0	5251	429635.682654753361	2027.905294206
0	5262	430497.116187773679	2113.4865588974
0	5273	431498.051030421664	2267.2304179519
0	5280	432087.467275327106	2233.9493840933
0	5289	432946.912395162542	2280.2230251487
0	5298	433553.602094762061	2055.5510643404
0	5305	434083.544922759791	1796.306523867
0	5318	435126.96073930714	2134.2924789526
0	5325	435872.251859447022	2231.0438515618
0	5332	436392.086882796173	2029.5564214233
0	5341	437220.991812832689	2094.0310735255
0	5350	438125.939617725125	2110.6319779996
0	5361	439170.259999064764	2266.8586038519
0	5368	439853.396399505472	2148.344626883
0	5379	440652.147681126406	2112.9990168381
0	5388	441440.822583530133	2022.2604628187
0	5399	442306.102595105802	2316.64443193
0	5406	443086.123296478798	2285.8377381228
0	5413	443427.073886990582	1806.5155708697
0	5424	444441.629079356824	2135.526484251
0	5433	445070.08129083555	1878.8144582883
0	5444	445916.785910585931	1907.6994968578
0	5451	446573.111974541134	2041.9173660222
0	5458	447308.29639350999	2043.4884862974
0	5469	448219.562834641001	2302.7769240551
0	5478	448757.808644883371	2125.5902348086
0	5485	449497.165673458985	2059.3842749018
0	5496	450327.871440164782	2049.2232880555
0	5507	451006.337987165935	2112.2334334999
0	5516	451896.54410742227	2133.8048258331
0	5521	452552.485672384538	2143.5758437961
0	5530	453451.676637679376	2445.3386505134
0	5539	454088.714021584057	2192.1699141618
0	5548	454756.247033039146	1973.5984649509
0	5559	456096.76605965946	2420.3770418186
0	5566	456458.229812141546	2006.8457718473
0	5577	457269.742536451706	1985.9122398309
0	5584	457663.417698768937	1562.3541285284
0	5597	458780.882647354193	2137.7159012016
0	5604	459560.801570909135	2239.7940372583
0	5613	460120.26419942271	1970.0268554036
0	5622	461041.350428760089	2260.4677814059
0	5633	461919.993923697658	2305.5730822496
0	5640	462715.577485179566	2410.5907456018
0	5651	463502.504051383622	2307.4775302783
0	5660	464358.328537736125	2438.3346140385
0	5669	465201.562845194749	2432.1481884923
0	5678	466031.896704202555	2529.3926528189
0	5687	466863.869346119501	2505.5408083834
0	5696	467718.068469408937	2516.5056242142
0	5705	468449.704824434631	2417.8081202321
0	5714	469205.097367521413	2341.2280214019
0	5719	469516.447201184966	1798.378731776
0	5728	470345.03583870832	1895.3310142737
0	5739	471378.331270208621	2173.2339026872
0	5748	471998.827591119372	2005.9361784719
0	5755	472525.495016248935	1659.2133804224
0	5766	473384.018763061651	1956.4676831011
0	5777	474140.628636349031	2093.8422312029
0	5784	474501.65116614666	1752.4193469901
0	5791	474983.895620796868	1595.6375520676
0	5800	475739.144183741921	1598.5155473929
0	5809	476619.649674883152	2006.2142398674
0	5818	477366.570192435795	1872.5622802041
0	5829	478165.64947287556	2015.2092775796
0	5840	479134.537813486571	2309.8251175135
0	5845	479590.056568058247	2180.7839465328
0	5854	480350.606618123169	2102.1861460526
0	5867	481453.133013378868	2318.5951998923
0	5874	482027.921452140475	2121.9914494548
0	5883	482710.937122860962	1972.3056966439
0	5894	483589.243901660705	2136.1108882818
0	5903	484457.396088866556	2288.8317637146
0	5912	485021.41749090519	2244.1813257057
0	5917	485385.508389864156	1796.2644882035
0	5928	486215.24316058498	1757.8470717184
0	5935	486877.421678742432	1856.0041878372
0	5948	487677.110997028688	2017.3326794989
0	5953	488012.55729664121	1659.964029165
0	5964	488962.105222139547	2016.1757455207
0	5973	489574.133191164622	1897.0221941359
0	5984	490459.980528848285	1886.7942572571
0	5991	490890.510395681525	1875.6809100509
0	6000	491585.523805115411	1798.5427966341
0	6011	492459.409956028724	1999.4294271804
0	6016	492893.331399187485	1992.586991284
0	6027	493702.431067870969	2048.7059540581
0	6038	494938.968022540251	2479.5580665115
0	6045	495551.133815059478	2244.3004184403
0	6054	496283.323001442517	2173.300956795
0	6063	496967.916436912532	2028.9484143723
0	6070	497411.085266433696	1808.9692436624
0	6079	498411.040106182958	2005.8058924042
0	6088	499050.125331105704	1984.042821452
0	6097	499635.638631647493	1785.5422403198
0	6108	500549.440782191272	1834.9809253123
0	6119	501754.719249950763	2279.4146815315
0	6126	502397.163625527214	2382.0851704571
0	6135	503121.24322350141	2227.9209646862
0	6142	503553.110072761815	1798.3908228111
0	6151	504319.072529068258	1880.9678640682
0	6160	505023.350601084572	1784.9559548311
0	6173	506155.891314614606	2343.9487564377
0	6178	506547.017232282129	1873.3063914813
0	6187	507178.798426967156	1717.0449592173
0	6200	508476.231966633391	2320.3406520188
0	6209	509258.415413601365	2449.0110534243
0	6216	509614.30791928437	1995.6016127486
0	6223	510333.206164464396	1856.974197831
0	6234	511590.775985643309	2332.3605720419
0	6241	512002.890858147335	1981.4570931718
0	6250	512594.987784745213	1712.403650349
0	6263	513607.164601190057	1845.3108348884
0	6270	514024.903593119275	1774.5385570452
0	6279	514723.602631269064	1866.4467138704
0	6286	515271.237410791259	1664.0728096012
0	6295	516016.020262800199	1826.2125174981
0	6306	517155.784287443426	2070.7961929031
0	6317	517814.761410746765	1913.0758684594
0	6322	518142.518119420898	1513.5578194633
0	6327	518520.876660989639	1313.9999276027
0	6340	519720.195462461603	1905.4340517148
0	6349	520391.803287109403	1718.8486271538
0	6362	521500.935047725257	2172.9742422234
0	6369	521932.821202604142	1920.8248791285
0	6376	522485.964263090906	1648.4781738371
0	6387	523550.244219275233	2049.30917155
0	6396	523953.573697619182	1795.9952786565
0	6405	524796.228427626234	1885.4682379402
0	6412	525116.524827294093	1539.3394430168
0	6421	525583.006044197869	1516.5218150709
0	6432	526497.180608287495	1692.9762931075
0	6441	527235.812113992911	2027.3741173558
0	6448	527858.046025224071	2035.7617151923
0	6457	528804.321344336537	2121.3229475543
0	6466	529515.386480419007	1991.3949463516
0	6477	530496.398316230666	2240.4138933867
0	6486	531339.444455411326	2398.5212383792
0	6493	531803.015060909133	2109.5570038073
0	6504	532468.166532693472	1885.2485787123
0	6513	533543.907057400835	2159.4352128915
0	6520	534017.451277608094	2007.5219726656
0	6531	534721.01606600922	2057.8661606647
0	6538	535191.805665101897	1632.3102506809
0	6547	535818.104340881151	1654.7878643498
0	6556	536655.732947867406	1835.0221181754
0	6569	537670.429947925773	2173.1809834018
0	6576	538355.039970483672	1974.764768919
0	6585	538726.414862880524	1923.6142464448
0	6592	539041.513388743665	1371.0834408179
0	6597	539625.439075380605	1250.8852443192
0	6610	540864.580332487864	2030.3748444188
0	6621	541822.927215602291	2136.2109763082
0	6628	542328.423957293895	1861.7816406302
0	6641	543548.723447788549	2384.4204666093
0	6650	544294.293720927132	2298.342287913
0	6657	544754.411643510727	1972.9646554682
0	6664	545262.555350828958	1713.8319030404
0	6677	546227.568969922182	1933.275248995
0	6682	546896.437204862055	1942.1028280165
0	6695	547819.083387404722	2078.4122777637
0	6704	548149.923585355324	1922.3546154331
0	6709	548540.122220758391	1488.3059014566
0	6720	549313.344955164982	1494.2615677603
0	6731	550330.986495316071	2181.0629099607
0	6740	551077.658628579272	2364.2717883456
0	6745	551715.34279463817	2164.9066844489
0	6758	552691.577774472577	2360.5912791565
0	6765	553246.055456483779	2168.3968279045
0	6772	553758.710954664318	1912.7251556609
0	6781	554688.008967367975	1996.4311928954
0	6790	555239.829791570124	1809.8371543922
0	6803	556331.048081349625	2092.7192549687
0	6812	556906.578650604977	2131.7001200281
0	6819	557292.008220590695	1849.6572421398
0	6830	558133.834002306729	1802.7859209571
0	6837	558589.861078793227	1683.2824281882
0	6848	559503.811301803261	2028.1315224711
0	6855	560395.725883310705	2261.891881004
0	6862	560874.444422917486	2081.1059752945
0	6873	561761.602115398318	2257.7908135951
0	6884	562377.195757068739	1974.2614853662
0	6889	562905.441668210597	1750.7862185128
0	6898	563627.857323456601	1833.0819066614
0	6911	564534.103032527537	2156.9072754588
0	6918	565202.775804558814	2006.8884249777
0	6925	565543.177675316155	1592.8396086674
0	6936	566788.904864480765	2254.8018319532
0	6947	567664.356926875235	2421.5184455272
0	6952	568009.1675839853	2013.5860435199
0	6961	568906.410289323003	2089.1475523822
0	6974	569956.535920919897	2292.1789940447
0	6981	570594.894323358359	2284.2565890402
0	6992	571515.092557389336	2391.5390556213
0	7001	572169.853353593545	2213.3174326736
0	7006	572501.388241164433	1854.091188591
0	7017	573738.870717678266	2223.7781602889
0	7026	574523.827609000774	2353.9742554072
0	7033	575219.878696370916	2217.2946300823
0	7046	576204.873843491123	2421.2143152952
0	7055	577036.058008717419	2353.8802435622
0	7064	577833.934542909311	2297.4829921033
0	7071	578330.930493772076	2126.056650281
0	7078	579208.156767720403	2172.098759003
0	7089	579981.515814643401	2147.5812717341
0	7096	580637.65551773836	1943.4585994575
0	7107	581429.990350920754	1957.7781918459
0	7116	582215.83126648334	1890.9592052456
0	7125	582870.19590907735	1784.3782176264
0	7134	583579.802981391597	2012.8052288666
0	7141	584136.935464851606	1841.1955017596
0	7150	584663.220385182696	1592.4440927804
0	7159	585728.27053950173	1935.6386808213
0	7172	586467.344936030033	2139.9695896078
0	7179	587129.048653319526	2048.0752089992
0	7186	587669.048772146973	1848.7633556128
0	7195	588900.878775352659	2433.5338393226
0	7204	589328.47367590298	2058.9200007264
0	7213	590153.78253883687	2033.8922579773
0	7222	591178.069547563839	2181.9212636445
0	7231	591607.108384324285	1785.540228663
0	7240	592229.019389301586	1565.2132983785
0	7249	593037.554366653832	1648.4319570009
0	7262	593690.492627676623	1787.8241303377
0	7269	594319.500582944648	1729.9582794774
0	7278	594877.963040163787	1805.5274285842
0	7287	595492.337400186853	1801.8447725102
0	7294	595857.720223814295	1463.3479099721
0	7305	596901.3703050558	2011.6036180872
0	7314	597970.533924596432	2211.9981856551
0	7323	598444.949480798143	2126.5713822562
0	7334	598951.538376510192	1849.7562257107
0	7339	599350.415888009642	1374.4152633939
0	7352	600266.502218926374	1784.324749466
0	7357	600660.874358285267	1709.3359817751
0	7366	601495.167563762564	2027.2867006715
0	7375	601987.118970695931	1720.6167517696
0	7386	602732.80981890862	1846.9343243167
0	7395	603600.362477079082	1860.1438330952
0	7402	603911.519779963467	1559.512455482
1	3199	260339.641124010102	354
1	3208	261365.984901040808	355
1	3219	261925.860499497519	356
1	3230	262924.276365386338	357
1	3235	263506.96838968435	358
1	3244	264174.753933772461	359
1	3253	265058.086036797629	360
1	3264	265992.118457006307	361
1	3273	266550.459370063634	362
1	3280	266963.797116559015	363
1	3291	267952.61146696286	364
1	3298	268480.841357354091	365
1	3309	269499.773768847824	366
1	3316	270262.266101315633	367
1	3327	271057.218322623537	368
1	3334	271888.500366266833	369
1	3343	272546.559194661692	370
1	3354	273409.294710075498	371
1	3361	273921.532859886081	372
1	3372	275117.97984084116	373
1	3379	275419.852744415418	374
1	3388	276348.733184253813	375
1	3397	276837.877329066411	376
1	3408	277960.739344451592	377
1	3415	278529.22446057202	378
1	3424	279339.25457037987	379
1	3435	280375.890977634133	380
1	3444	281101.968454476462	381
1	3451	281793.525290256382	382
1	3464	282990.190803771855	383
1	3469	283352.632642071711	384
1	3482	284543.034156365337	385
1	3487	285017.548058135452	386
1	3500	286191.145643871295	387
1	3507	286926.025700708869	388
1	3514	287453.774105245265	389
1	3527	288324.830928118917	390
1	3534	288998.628008784744	391
1	3545	289693.529485026392	392
1	3550	290002.01800279321	393
1	3563	291065.039609838295	394
1	3572	291601.573992474023	395
1	3581	292417.763237888012	396
1	3586	292832.42481490599	397
1	3599	293979.656544327755	398
1	3606	294380.618138099108	399
1	3615	295108.419708441962	400
1	3622	295787.316286051665	401
1	3631	296479.234066838418	402
1	3640	297258.073000889292	403
1	3653	298396.571113960838	404
1	3662	298994.668333372122	405
1	3667	299439.303920790574	406
1	3680	300312.418916635237	407
1	3687	300869.813378015555	408
1	3698	302026.814889768161	409
1	3703	302332.874653302156	410
1	3712	303217.29845479133	411
1	3721	304319.364150892965	412
1	3734	305335.621516406559	413
1	3741	306063.712409092136	414
1	3750	306862.379743158841	415
1	3761	307840.400665579387	416
1	3770	308537.921176571422	417
1	3777	308963.803870836296	418
1	3786	309813.523200480291	419
1	3795	310840.201882598944	420
1	3804	311519.477027189009	421
1	3813	312449.692208832153	422
1	3824	313194.790220120945	423
1	3833	313834.326048614481	424
1	3840	314609.324709372619	425
1	3847	314982.118889875734	426
1	3860	315949.004390649521	427
1	3869	316614.588718023175	428
1	3876	317290.475008590171	429
1	3885	317786.820505745732	430
1	3894	318811.603861721256	431
1	3901	319521.248132921779	432
1	3914	320369.446098106006	433
1	3921	320761.617144104117	434
1	3932	321911.489375168482	435
1	3941	322486.727855773667	436
1	3946	322859.987313766057	437
1	3959	324115.828799642646	438
1	3966	324687.956460798183	439
1	3977	325518.301874818304	440
1	3986	326353.39385052214	441
1	3991	327008.874712837884	442
1	4000	327390.817692875886	443
1	4011	328266.811738349521	444
1	4018	328975.387310888642	445
1	4031	329839.750729082176	446
1	4040	330544.700014824071	447
1	4049	331336.632295651385	448
1	4054	331829.21052728782	449
1	4063	332695.928833773384	450
1	4076	333675.231664627814	451
1	4081	334142.522688629129	452
1	4092	334967.020395118767	453
1	4099	335437.769214436435	454
1	4110	336566.483050491684	455
1	4119	336990.314986137696	456
1	4126	337441.166923334845	457
1	4139	338351.703617395856	458
1	4148	339174.739151727431	459
1	4157	339731.73774252648	460
1	4166	340262.203673366481	461
1	4175	341083.303833520064	462
1	4180	341685.938941128576	463
1	4191	342459.788702381799	464
1	4198	343178.686878830219	465
1	4209	343977.11684131066	466
1	4218	344696.489980816866	467
1	4229	345742.670019809182	468
1	4236	346235.662216600056	469
1	4243	346540.831669606294	470
1	4252	347643.099734606247	471
1	4263	348914.020832441773	472
1	4270	349551.418481022145	473
1	4281	350570.367633830782	474
1	4288	350881.188797671374	475
1	4299	351804.838838987078	476
1	4306	352517.012070352238	477
1	4315	353243.610491836469	478
1	4328	354248.312844894852	479
1	4337	355049.839838454525	480
1	4344	355795.017419289823	481
1	4353	356225.52756266671	482
1	4360	357164.924515737246	483
1	4371	358216.130001330773	484
1	4382	359133.629864221464	485
1	4391	359985.729519696932	486
1	4398	360817.029251810189	487
1	4407	361683.998467493828	488
1	4416	362097.41019364449	489
1	4423	362701.826803945031	490
1	4434	364019.340629316893	491
1	4443	364659.603269537938	492
1	4452	365409.840467758504	493
1	4459	365796.499437605989	494
1	4470	366876.441375352469	495
1	4479	367531.969270901781	496
1	4486	368224.221665225951	497
1	4495	368775.62754792164	498
1	4500	369187.606670754059	499
1	4513	370656.787080690293	500
1	4522	371174.903495097561	501
1	4531	371976.048038480831	502
1	4540	372882.336560077994	503
1	4553	373759.039965597941	504
1	4560	374503.586399741499	505
1	4571	375017.040579998894	506
1	4580	375604.045856231852	507
1	4585	376277.235246403171	508
1	4598	377267.092520976468	509
1	4605	378052.750588255032	510
1	4616	378823.335248138785	511
1	4625	379448.832828272164	512
1	4632	380208.058717288107	513
1	4643	380923.885277844995	514
1	4652	381437.177546415508	515
1	4661	382204.708441207215	516
1	4670	383045.92255661267	517
1	4679	383618.472260981828	518
1	4686	384361.245094751969	519
1	4693	384955.333861336142	520
1	4702	385344.72645088102	521
1	4711	386567.832697229491	522
1	4722	387106.251618498968	523
1	4729	387871.548272436516	524
1	4742	388824.42932976413	525
1	4749	389352.826365083488	526
1	4758	390117.926112748715	527
1	4767	391008.118397975373	528
1	4774	391611.94146727215	529
1	4783	392755.745109077576	530
1	4794	393387.942759180474	531
1	4803	394092.694909265297	532
1	4812	394602.210791688444	533
1	4821	395544.566483795675	534
1	4828	396172.935423022168	535
1	4837	396562.140885600852	536
1	4846	397509.541505249249	537
1	4857	398765.2022566181	538
1	4866	399653.927253093603	539
1	4873	400076.816725730928	540
1	4882	400786.482480727169	541
1	4891	401390.242261625859	542
1	4902	402402.98963938843	543
1	4911	402856.281420355696	544
1	4920	403577.115897182408	545
1	4927	404298.34526642229	546
1	4936	405080.50422552045	547
1	4947	405852.559414180028	548
1	4956	406710.74955230582	549
1	4967	407443.051457963916	550
1	4972	407884.166031377422	551
1	4981	408456.485134502905	552
1	4990	409254.951794771509	553
1	5001	410049.207633733781	554
1	5010	410706.677381554651	555
1	5019	411328.739292221176	556
1	5026	412158.524684747713	557
1	5037	412805.896006152066	558
1	5044	413127.119415672528	559
1	5057	414176.140115596386	560
1	5064	414919.492539810049	561
1	5073	415355.012602033125	562
1	5084	416250.045180693301	563
1	5089	416608.99176928218	564
1	5100	417691.925680730525	565
1	5111	418605.1258277614	566
1	5116	418969.278933852944	567
1	5125	419773.680061055381	568
1	5134	420363.019827380809	569
1	5143	420920.099193742531	570
1	5154	421502.150938706505	571
1	5163	422497.674182988735	572
1	5172	423267.507710913228	573
1	5181	423997.818153770673	574
1	5188	424524.618571065399	575
1	5201	425135.033869044888	576
1	5208	425757.287380378726	577
1	5215	426221.986348181996	578
1	5226	427553.578203404356	579
1	5237	428383.629628876258	580
1	5246	429230.820612469722	581
1	5251	429635.682654753361	582
1	5262	430497.116187773679	583
1	5273	431498.051030421664	584
1	5280	432087.467275327106	585
1	5289	432946.912395162542	586
1	5298	433553.602094762061	587
1	5305	434083.544922759791	588
1	5318	435126.96073930714	589
1	5325	435872.251859447022	590
1	5332	436392.086882796173	591
1	5341	437220.991812832689	592
1	5350	438125.939617725125	593
1	5361	439170.259999064764	594
1	5368	439853.396399505472	595
1	5379	440652.147681126406	596
1	5388	441440.822583530133	597
1	5399	442306.102595105802	598
1	5406	443086.123296478798	599
1	5413	443427.073886990582	600
1	5424	444441.629079356824	601
1	5433	445070.08129083555	602
1	5444	445916.785910585931	603
1	5451	446573.111974541134	604
1	5458	447308.29639350999	605
1	5469	448219.562834641001	606
1	5478	448757.808644883371	607
1	5485	449497.165673458985	608
1	5496	450327.871440164782	609
1	5507	451006.337987165935	610
1	5516	451896.54410742227	611
1	5521	452552.485672384538	612
1	5530	453451.676637679376	613
1	5539	454088.714021584057	614
1	5548	454756.247033039146	615
1	5559	456096.76605965946	616
1	5566	456458.229812141546	617
1	5577	457269.742536451706	618
1	5584	457663.417698768937	619
1	5597	458780.882647354193	620
1	5604	459560.801570909135	621
1	5613	460120.26419942271	622
1	5622	461041.350428760089	623
1	5633	461919.993923697658	624
1	5640	462715.577485179566	625
1	5651	463502.504051383622	626
1	5660	464358.328537736125	627
1	5669	465201.562845194749	628
1	5678	466031.896704202555	629
1	5687	466863.869346119501	630
1	5696	467718.068469408937	631
1	5705	468449.704824434631	632
1	5714	469205.097367521413	633
1	5719	469516.447201184966	634
1	5728	470345.03583870832	635
1	5739	471378.331270208621	636
1	5748	471998.827591119372	637
1	5755	472525.495016248935	638
1	5766	473384.018763061651	639
1	5777	474140.628636349031	640
1	5784	474501.65116614666	641
1	5791	474983.895620796868	642
1	5800	475739.144183741921	643
1	5809	476619.649674883152	644
1	5818	477366.570192435795	645
1	5829	478165.64947287556	646
1	5840	479134.537813486571	647
1	5845	479590.056568058247	648
1	5854	480350.606618123169	649
1	5867	481453.133013378868	650
1	5874	482027.921452140475	651
1	5883	482710.937122860962	652
1	5894	483589.243901660705	653
1	5903	484457.396088866556	654
1	5912	485021.41749090519	655
1	5917	485385.508389864156	656
1	5928	486215.24316058498	657
1	5935	486877.421678742432	658
1	5948	487677.110997028688	659
1	5953	488012.55729664121	660
1	5964	488962.105222139547	661
1	5973	489574.133191164622	662
1	5984	490459.980528848285	663
1	5991	490890.510395681525	664
1	6000	491585.523805115411	665
1	6011	492459.409956028724	666
1	6016	492893.331399187485	667
1	6027	493702.431067870969	668
1	6038	494938.968022540251	669
1	6045	495551.133815059478	670
1	6054	496283.323001442517	671
1	6063	496967.916436912532	672
1	6070	497411.085266433696	673
1	6079	498411.040106182958	674
1	6088	499050.125331105704	675
1	6097	499635.638631647493	676
1	6108	500549.440782191272	677
1	6119	501754.719249950763	678
1	6126	502397.163625527214	679
1	6135	503121.24322350141	680
1	6142	503553.110072761815	681
1	6151	504319.072529068258	682
1	6160	505023.350601084572	683
1	6173	506155.891314614606	684
1	6178	506547.017232282129	685
1	6187	507178.798426967156	686
1	6200	508476.231966633391	687
1	6209	509258.415413601365	688
1	6216	509614.30791928437	689
1	6223	510333.206164464396	690
1	6234	511590.775985643309	691
1	6241	512002.890858147335	692
1	6250	512594.987784745213	693
1	6263	513607.164601190057	694
1	6270	514024.903593119275	695
1	6279	514723.602631269064	696
1	6286	515271.237410791259	697
1	6295	516016.020262800199	698
1	6306	517155.784287443426	699
1	6317	517814.761410746765	700
1	6322	518142.518119420898	701
1	6327	518520.876660989639	702
1	6340	519720.195462461603	703
1	6349	520391.803287109403	704
1	6362	521500.935047725257	705
1	6369	521932.821202604142	706
1	6376	522485.964263090906	707
1	6387	523550.244219275233	708
1	6396	523953.573697619182	709
1	6405	524796.228427626234	710
1	6412	525116.524827294093	711
1	6421	525583.006044197869	712
1	6432	526497.180608287495	713
1	6441	527235.812113992911	714
1	6448	527858.046025224071	715
1	6457	528804.321344336537	716
1	6466	529515.386480419007	717
1	6477	530496.398316230666	718
1	6486	531339.444455411326	719
1	6493	531803.015060909133	720
1	6504	532468.166532693472	721
1	6513	533543.907057400835	722
1	6520	534017.451277608094	723
1	6531	534721.01606600922	724
1	6538	535191.805665101897	725
1	6547	535818.104340881151	726
1	6556	536655.732947867406	727
1	6569	537670.429947925773	728
1	6576	538355.039970483672	729
1	6585	538726.414862880524	730
1	6592	539041.513388743665	731
1	6597	539625.439075380605	732
1	6610	540864.580332487864	733
1	6621	541822.927215602291	734
1	6628	542328.423957293895	735
1	6641	543548.723447788549	736
1	6650	544294.293720927132	737
1	6657	544754.411643510727	738
1	6664	545262.555350828958	739
1	6677	546227.568969922182	740
1	6682	546896.437204862055	741
1	6695	547819.083387404722	742
1	6704	548149.923585355324	743
1	6709	548540.122220758391	744
1	6720	549313.344955164982	745
1	6731	550330.986495316071	746
1	6740	551077.658628579272	747
1	6745	551715.34279463817	748
1	6758	552691.577774472577	749
1	6765	553246.055456483779	750
1	6772	553758.710954664318	751
1	6781	554688.008967367975	752
1	6790	555239.829791570124	753
1	6803	556331.048081349625	754
1	6812	556906.578650604977	755
1	6819	557292.008220590695	756
1	6830	558133.834002306729	757
1	6837	558589.861078793227	758
1	6848	559503.811301803261	759
1	6855	560395.725883310705	760
1	6862	560874.444422917486	761
1	6873	561761.602115398318	762
1	6884	562377.195757068739	763
1	6889	562905.441668210597	764
1	6898	563627.857323456601	765
1	6911	564534.103032527537	766
1	6918	565202.775804558814	767
1	6925	565543.177675316155	768
1	6936	566788.904864480765	769
1	6947	567664.356926875235	770
1	6952	568009.1675839853	771
1	6961	568906.410289323003	772
1	6974	569956.535920919897	773
1	6981	570594.894323358359	774
1	6992	571515.092557389336	775
1	7001	572169.853353593545	776
1	7006	572501.388241164433	777
1	7017	573738.870717678266	778
1	7026	574523.827609000774	779
1	7033	575219.878696370916	780
1	7046	576204.873843491123	781
1	7055	577036.058008717419	782
1	7064	577833.934542909311	783
1	7071	578330.930493772076	784
1	7078	579208.156767720403	785
1	7089	579981.515814643401	786
1	7096	580637.65551773836	787
1	7107	581429.990350920754	788
1	7116	582215.83126648334	789
1	7125	582870.19590907735	790
1	7134	583579.802981391597	791
1	7141	584136.935464851606	792
1	7150	584663.220385182696	793
1	7159	585728.27053950173	794
1	7172	586467.344936030033	795
1	7179	587129.048653319526	796
1	7186	587669.048772146973	797
1	7195	588900.878775352659	798
1	7204	589328.47367590298	799
1	7213	590153.78253883687	800
1	7222	591178.069547563839	801
1	7231	591607.108384324285	802
1	7240	592229.019389301586	803
1	7249	593037.554366653832	804
1	7262	593690.492627676623	805
1	7269	594319.500582944648	806
1	7278	594877.963040163787	807
1	7287	595492.337400186853	808
1	7294	595857.720223814295	809
1	7305	596901.3703050558	810
1	7314	597970.533924596432	811
1	7323	598444.949480798143	812
1	7334	598951.538376510192	813
1	7339	599350.415888009642	814
1	7352	600266.502218926374	815
1	7357	600660.874358285267	816
1	7366	601495.167563762564	817
1	7375	601987.118970695931	818
1	7386	602732.80981890862	819
1	7395	603600.362477079082	820
1	7402	603911.519779963467	821

