version 2
run Pipeline_7teachers-11-20181220-18:43:15-25008
attr configname Pipeline_7teachers
attr datetime 20181220-18:43:15
attr experiment Pipeline_7teachers
attr inifile omnetpp.ini
attr iterationvars "$0=\"lognormal\""
attr iterationvarsf lognormal-
attr measurement "$0=\"lognormal\""
attr network PipelinedExamSession
attr processid 25008
attr repetition 1
attr replication #1
attr resultdir results
attr runnumber 11
attr seedset 1
param **.teachersNumber 7
param **.answerTimeDistribution "\"lognormal\""
param **.minUniform 300
param **.maxUniform 1800
param **.scaleLognormal 6.8153
param **.shapeLognormal 0.5316

vector 0 PipelinedExamSession examinationTime:vector ETV
attr source examFinished
vector 1 PipelinedExamSession studentsWaitingTime:vector ETV
attr source waitingTime
vector 2 PipelinedExamSession teachersIdleTime:vector ETV
attr source idleTime
0	57	6513.245506890428	6513.2455068904
0	82	8095.477854355773	6511.8606734383
0	121	10753.429176791884	7193.7762332318
0	124	11139.211535746028	6643.7182146645
0	177	14477.440578432239	8491.9232845575
0	210	16093.075531760399	8309.5313553859
0	235	17429.053846194681	7774.4459419071
0	242	18120.286025835258	7542.1677795869
0	273	20062.906191517234	8266.044891123
0	302	21832.32151985823	9119.4655521149
0	337	25426.873493367316	10340.264747491
0	352	26491.908004011942	10601.852881262
0	367	27220.935181122471	9793.2733654566
0	378	27716.902124810432	7086.7552885196
0	443	34014.287312874488	12434.390210584
0	472	35779.226150976468	12821.598938411
0	497	36727.902853911867	10757.918674695
0	510	37223.176226687478	9507.6784847808
0	547	39551.689989012341	10173.154919147
0	566	40703.586546946582	10391.051052413
0	577	42086.105373742215	8904.1378411783
0	596	43828.597932176955	9595.2682787737
0	615	44428.778544138314	8649.5523931618
0	660	49132.728186845025	12404.825332933
0	667	49655.989772227577	11757.907343441
0	706	51344.781630238486	11793.091641226
0	725	52982.607664542203	9952.7055933354
0	750	55520.216924760122	11331.65633396
0	797	61573.788233778102	14316.32443961
0	814	62401.991131096965	13364.206842806
0	819	63025.364872682094	12698.757828232
0	852	65199.489678127972	13230.942284726
0	895	67953.445905275	13870.978076788
0	914	68851.321824947022	12904.070953981
0	935	71955.701218125697	13578.569474312
0	946	73657.841368670614	12084.053134893
0	987	75601.346044105379	11211.534784753
0	1016	78090.287171530281	12651.028432423
0	1037	79422.674314242715	12911.54778893
0	1050	80413.658488067251	12356.444331218
0	1081	83755.939951983535	12525.398418505
0	1086	84423.364053596981	10555.076400199
0	1099	85535.003053248301	10201.318362521
0	1134	87672.060325904066	10024.959473699
0	1165	90107.472669247988	11080.161956792
0	1210	92373.602718286701	11090.667862437
0	1237	95011.400754042827	9814.9037305592
0	1272	97812.58578597592	11286.855855031
0	1291	98403.966481973073	9729.8187722507
0	1320	103766.11633512505	13988.98008275
0	1323	104574.901663488695	13477.558302695
0	1346	106102.178022863318	14013.0099267
0	1389	108773.049153372817	14341.398224298
0	1412	110633.89899785974	15052.760401194
0	1435	112029.547009205101	14216.961223229
0	1450	113171.071662063855	13136.293015248
0	1467	114390.531635291808	9383.4591434311
0	1500	116407.880983733838	9443.4114635329
0	1515	117176.502204090882	9113.1575584316
0	1534	118771.13271311592	8721.1610728433
0	1585	122275.650335980273	10555.326205757
0	1616	124841.01899528179	10327.09341134
0	1631	125683.68307009053	9795.4504224336
0	1666	128846.503532990164	12071.029486654
0	1675	129818.991997315982	10826.936953403
0	1688	132509.027479657156	11142.844809351
0	1715	134326.612101549313	12095.944494912
0	1746	136686.302545630253	12234.878178241
0	1769	138144.491841529772	11121.082372385
0	1790	139592.475281761789	10759.038626641
0	1825	141889.507732861694	8932.5104801126
0	1860	144181.251609928492	10239.297952091
0	1889	147499.854135477681	11532.935532187
0	1900	147873.277335039063	10625.721846534
0	1927	149915.818375131704	10523.994307684
0	1962	151224.027344319844	10199.934865333
0	1991	153401.774068802225	10960.206440628
0	2012	154624.560134591089	10671.729920478
0	2047	157627.360728645473	11009.571492008
0	2070	158865.548019684966	10854.64808938
0	2085	159783.435888217254	9859.2031915557
0	2100	160306.73588935494	9414.4288697382
0	2123	162353.110245077508	9748.7656110117
0	2160	163715.852258312911	9582.0522048918
0	2181	164382.169915083363	8748.3865883063
0	2190	165396.757688068569	7769.3969594231
0	2235	168165.255649839834	7948.5558995997
0	2268	171015.05630302133	9366.0182283051
0	2273	171664.35815766425	9148.3792066416
1	57	6513.245506890428	0
1	82	8095.477854355773	0
1	121	10753.429176791884	0
1	124	11139.211535746028	964.19393532854
1	177	14477.440578432239	0
1	210	16093.075531760399	1081.787782334
1	235	17429.053846194681	1670.9344356669
1	242	18120.286025835258	444.26475890201
1	273	20062.906191517234	1603.0643188043
1	302	21832.32151985823	1826.6881543691
1	337	25426.873493367316	2838.9591639039
1	352	26491.908004011942	4403.1727801711
1	367	27220.935181122471	0
1	378	27716.902124810432	1680.0148207207
1	443	34014.287312874488	1712.8955851117
1	472	35779.226150976468	2482.9725386045
1	497	36727.902853911867	5748.9564107784
1	510	37223.176226687478	2808.3885655433
1	547	39551.689989012341	3137.0993638525
1	566	40703.586546946582	2831.7003880635
1	577	42086.105373742215	2382.2040140376
1	596	43828.597932176955	2914.1700873003
1	615	44428.778544138314	2674.5509665515
1	660	49132.728186845025	608.81293443946
1	667	49655.989772227577	5176.0550619259
1	706	51344.781630238486	6113.1573533652
1	725	52982.607664542203	1492.2467983519
1	750	55520.216924760122	2897.3739971699
1	797	61573.788233778102	1619.5847587095
1	814	62401.991131096965	5431.0602835596
1	819	63025.364872682094	6298.4468556295
1	852	65199.489678127972	6401.8283527413
1	895	67953.445905275	5325.1677862225
1	914	68851.321824947022	4699.4645679664
1	935	71955.701218125697	4049.4000893319
1	946	73657.841368670614	3626.0209977294
1	987	75601.346044105379	3889.2049133752
1	1016	78090.287171530281	5033.2243627339
1	1037	79422.674314242715	4708.445984137
1	1050	80413.658488067251	6745.2912173286
1	1081	83755.939951983535	1006.6702937457
1	1086	84423.364053596981	3634.8176252466
1	1099	85535.003053248301	1672.8375094654
1	1134	87672.060325904066	2161.9257659738
1	1165	90107.472669247988	2724.3602828695
1	1210	92373.602718286701	3059.7528394657
1	1237	95011.400754042827	331.12411679784
1	1272	97812.58578597592	3670.386487409
1	1291	98403.966481973073	3160.247984129
1	1320	103766.11633512505	3679.9451122884
1	1323	104574.901663488695	8673.3732594986
1	1346	106102.178022863318	3721.6415479263
1	1389	108773.049153372817	8133.9302063166
1	1412	110633.89899785974	8416.0600362274
1	1435	112029.547009205101	7824.2708823028
1	1450	113171.071662063855	7694.1881627879
1	1467	114390.531635291808	2415.7865584665
1	1500	116407.880983733838	2802.7290096441
1	1515	117176.502204090882	2745.2986763849
1	1534	118771.13271311592	548.95039114179
1	1585	122275.650335980273	2486.1054592833
1	1616	124841.01899528179	611.04792522735
1	1631	125683.68307009053	2819.3717197354
1	1666	128846.503532990164	1576.4136482687
1	1675	129818.991997315982	3261.054578626
1	1688	132509.027479657156	4679.7585725958
1	1715	134326.612101549313	5126.6356286374
1	1746	136686.302545630253	0
1	1769	138144.491841529772	5209.3892667119
1	1790	139592.475281761789	3086.8319707126
1	1825	141889.507732861694	1704.4195841407
1	1860	144181.251609928492	2389.0524681622
1	1889	147499.854135477681	2058.2916610327
1	1900	147873.277335039063	4153.0683263484
1	1927	149915.818375131704	3273.240844566
1	1962	151224.027344319844	3133.2378874766
1	1991	153401.774068802225	4673.9647116761
1	2012	154624.560134591089	1937.7103568335
1	2047	157627.360728645473	3437.2039105846
1	2070	158865.548019684966	5020.8501112228
1	2085	159783.435888217254	2800.3129843453
1	2100	160306.73588935494	3539.3479425313
1	2123	162353.110245077508	4031.3925900147
1	2160	163715.852258312911	3008.6769543331
1	2181	164382.169915083363	1549.2576476951
1	2190	165396.757688068569	1792.3749507022
1	2235	168165.255649839834	1156.7866162488
1	2268	171015.05630302133	1576.9790483209
1	2273	171664.35815766425	3471.9757382529
2	2286	172800	70012.978096978
2	2286	172800	80453.953909753
2	2286	172800	75187.989876941
2	2286	172800	82668.132934662
2	2286	172800	65555.358747649
2	2286	172800	66963.820084486
2	2286	172800	76773.555868466

