version 2
run Pipelined_3Teachers-89-20190105-10:57:38-19264
attr configname Pipelined_3Teachers
attr datetime 20190105-10:57:38
attr experiment Pipelined_3Teachers
attr inifile ../simulations/omnetpp.ini
attr iterationvars "$0=\"uniform\""
attr iterationvarsf uniform-
attr measurement "$0=\"uniform\""
attr network PipelinedExamSession
attr processid 19264
attr repetition 89
attr replication #89
attr resultdir results
attr runnumber 89
attr seedset 89
param **.teachersNumber 3
param **.answerTimeDistribution "\"uniform\""
param **.minUniform 300
param **.maxUniform 900
param **.scaleLognormal 6.2854
param **.shapeLognormal 0.4724

vector 0 PipelinedExamSession examinationTime:vector ETV
attr source examFinished
vector 1 PipelinedExamSession studentID:vector ETV
attr source student
0	3131	260336.085163056872	2153.4068821929
0	3136	261143.398188147716	2307.3248881381
0	3149	261937.262233905516	2289.4512637518
0	3158	262782.977412454806	2446.8922493979
0	3167	263369.696604553632	2207.3369569145
0	3176	264097.088703280337	2159.8264693748
0	3181	264680.222485167928	1897.2450727131
0	3192	265513.995776698016	2144.2991721444
0	3199	265884.314809693046	1787.2261064127
0	3212	266884.075931226857	1934.3934591394
0	3217	267321.685875859134	1652.609671047
0	3226	267961.844031745591	1880.9344181791
0	3235	268748.578366404422	1864.5024351776
0	3244	269310.550571652152	1691.7752032634
0	3253	269782.606868678727	1447.6054186933
0	3262	270677.044657850661	1698.6569258384
0	3273	271683.056870615133	2351.8224993255
0	3280	272208.973451843508	2090.5120400246
0	3289	272631.176116084703	1623.6288489774
0	3302	273988.067821646133	2256.0339042451
0	3311	274798.093963181624	2290.0768856518
0	3320	275560.667839413533	2365.7441526186
0	3327	276220.146958529973	2232.0791368838
0	3338	277067.276210803563	2269.1822476219
0	3345	277750.626711593965	2189.9588721804
0	3352	278315.198881225685	2083.5426368751
0	3361	279145.529216760795	2078.2530059572
0	3370	279668.848390504743	1760.2763256524
0	3381	280684.80844739827	2096.0777241737
0	3388	281161.96664194579	1806.9198278245
0	3399	281916.858929302569	1901.3103378005
0	3406	282400.201082881566	1654.198833229
0	3419	283954.005178855757	2389.0867923852
0	3428	284471.572551783199	2280.4840024095
0	3435	285297.509309928889	2223.7867595628
0	3444	285967.619227571437	2013.6140487157
0	3451	286741.271463409091	2269.6989116259
0	3460	287455.594701692486	2132.0904205553
0	3473	288519.310517516011	2360.9679258429
0	3478	288905.031794775301	2033.9852613397
0	3489	290066.65956876243	2362.5419521239
0	3496	290679.794639954368	2160.4841224384
0	3507	291821.228628745327	2572.5671872962
0	3516	292585.055708186725	2481.5160603728
0	3523	293139.471806399548	2154.7031111084
0	3532	293829.004738060782	1950.0577722676
0	3545	294921.093782968844	2177.2476384882
0	3552	295473.848284129078	2052.8725735378
0	3561	296392.806400358701	2322.7418166585
0	3570	296920.638757059375	1999.5449740905
0	3581	298182.460229890445	2513.7241527904
0	3590	298833.024039398903	2337.0432488155
0	3595	299201.277049770603	1871.7189921532
0	3606	300241.81414470079	2059.3539148103
0	3613	300650.086255744124	1817.0622163452
0	3622	301320.100241666685	1716.1730598193
0	3633	302160.638105403657	1891.1418139469
0	3644	302894.904969446386	1950.4327481613
0	3651	303326.060332451041	1753.04962839
0	3660	304506.09937109987	2145.7943008281
0	3667	305165.934365568708	2271.0293961223
0	3676	305746.948286192517	1981.5580617171
0	3685	306171.125678624984	1552.5085779838
0	3696	307107.400805968817	1681.4609074965
0	3703	307642.652499815475	1797.0020614564
0	3714	308549.759935168575	2148.3063702006
0	3723	309351.004848489563	2131.6641747951
0	3734	309848.087404947753	2019.0409345552
0	3741	310395.705065270911	1725.6261182483
0	3750	310981.742611108373	1531.1633611098
0	3761	312333.091817423727	2485.004412476
0	3770	312904.64070285673	2267.3506101128
0	3775	313228.390567889463	1727.8704904486
0	3788	314395.937886228811	2062.8460688051
0	3797	315288.298514625084	2383.6578117684
0	3802	315660.51850346851	2148.484736681
0	3811	316319.549496006247	1923.6116097774
0	3820	317271.052770735723	1982.7542561106
0	3831	318045.562653942061	2109.1632863972
0	3838	318402.084258478163	1669.4796343334
0	3851	319465.925793210072	2017.5894948654
0	3858	320209.355316683678	2138.0902340636
0	3865	320659.489566553411	1763.920561038
0	3874	321414.047478698222	1948.1216854881
0	3883	322289.643477229429	2037.2281748336
0	3896	323298.70688114318	2362.1538743377
0	3901	323648.719229316366	1955.8172169607
0	3910	324191.794578591389	1612.8623703495
0	3921	325327.114824112532	2028.4079429694
0	3928	326216.803578799618	2243.4199105483
0	3937	327047.89627944122	2199.6489966754
0	3946	327787.79766904193	2054.227547301
0	3959	328471.979331504582	1961.0672278795
0	3964	328948.31811217594	1541.0955915693
0	3973	329622.766733262717	1762.3360258061
0	3984	330561.573886452272	2089.5945549477
0	3995	331489.742601430073	2180.5544889998
0	4004	331931.118337763503	2020.2753465157
0	4011	332606.94537316452	1975.9814443532
0	4022	333454.790135286778	1965.0475338567
0	4029	334272.634791070625	2341.5164533071
0	4040	334810.093364166126	2169.4695556071
0	4045	335159.876339742944	1705.0862044562
0	4054	335719.555901689485	1379.5088520739
0	4063	336564.216139912636	1754.1227757465
0	4072	337474.282102799074	2073.2685084455
0	4085	338420.248813927205	2166.5466581471
0	4094	339205.321808997573	2356.3734096475
0	4099	339730.277006328137	2146.3838379364
0	4112	340641.713693272354	2221.4648793451
0	4121	341129.033726267548	1923.71191727
0	4130	342019.628468714686	2134.6637890209
0	4139	342905.110884178461	2263.3971909061
0	4148	343774.101864919098	2645.0681386515
0	4153	344112.834433699058	2093.2059649844
0	4162	345196.181125240432	2291.070241062
0	4171	345798.22572511624	2024.1238601971
0	4182	346383.394636027547	1790.6893169973
0	4193	346969.553843513163	1479.3616258074
0	4202	347675.802096538278	1780.7826133445
0	4211	348382.515570893916	1930.3018460982
0	4220	349231.538154836776	2261.9843113236
0	4225	349531.992476480114	1856.1903799418
0	4234	350238.667079480397	1856.1515085865
0	4243	350697.956602787632	1466.4184479509
0	4252	351648.670127894762	1976.3868304901
0	4261	352159.542681835625	1797.1666890197
0	4274	353255.88489621881	2056.1459365301
0	4283	354032.621316332403	2301.0579006281
0	4288	354700.542935589361	2304.865956679
0	4297	355241.672595078159	1985.7876988593
0	4306	356222.795877652276	2190.1745613199
0	4317	357163.842896651509	2244.6133386344
0	4328	357828.989318478885	2109.4100770075
0	4333	358205.156497238236	1693.367576832
0	4344	358816.156154964152	1529.43435302
0	4353	359826.41661143865	1997.4272929598
0	4364	360787.725370517033	2468.4616814833
0	4371	361157.844116399097	2069.4804517552
0	4380	361952.906070929053	2057.4369901791
0	4391	362802.192093897643	2014.4667233806
0	4400	363587.649964308398	2307.1074991487
0	4405	363973.263167124273	1943.9663008321
0	4416	364909.0941587929	2106.9020648953
0	4427	365529.327722266348	1941.677757958
0	4432	365981.752188038113	1675.5821065977
0	4445	367140.805835276874	2058.8749805465
0	4450	367531.006468227165	2001.6787459608
0	4459	368372.64045942578	2101.3907063752
0	4468	369119.657529378342	1978.8516941015
0	4479	369972.416422935236	2064.9955341127
0	4486	370599.648694368112	1891.1981617101
0	4499	371381.505578476968	2006.8365240935
0	4508	372097.963969549197	2044.3370467052
0	4513	372482.774046203154	1790.0509329513
0	4526	373770.188289787654	2388.6827113107
0	4531	374132.22904633734	2034.2650767881
0	4542	375285.890614148264	2346.8149475288
0	4553	376166.527492878993	2396.3392030913
0	4560	376687.235997151618	2114.0631797723
0	4571	377434.744643233751	2113.1091476418
0	4578	377960.422620317002	1793.895127438
0	4589	378824.328833073412	2101.1590923183
0	4598	379703.267270419781	2268.522627186
0	4603	380169.274878362228	2183.9539091103
0	4614	380902.195778628846	2077.8669455554
0	4625	382057.147130649571	2353.8798602298
0	4630	382431.428431207348	1961.134675378
0	4639	383108.058118075167	1927.4512098636
0	4650	384255.847761360963	2198.7006307114
0	4661	385148.890747502481	2372.782216128
0	4668	385911.396351316979	2242.2290181275
0	4675	386310.391405876761	2018.4778141323
0	4686	387325.482685212081	2176.5919377096
0	4693	387971.159976907109	1987.4057939742
0	4702	388613.951715594193	1757.9649872147
0	4711	389228.213972412085	1605.8523402549
0	4720	389982.367249159178	1888.098779507
0	4731	390796.019782125986	1911.320395628
0	4738	391461.071428516916	1817.161470931
0	4751	393034.390125470272	2644.0059323329
0	4756	393363.957092072851	2113.0391401704
0	4769	394288.651508465445	2145.3970616218
0	4774	394737.178614176846	1702.7884887066
0	4783	395055.265126051417	1217.7949117497
0	4792	396470.098980562797	2181.4474720974
0	4801	397119.301656167991	2120.7790559158
0	4810	398197.894258657506	2318.0708060972
0	4821	399238.644156279077	2463.02127745
0	4830	399704.671106161585	2089.8982859217
0	4837	400302.532085543534	1829.2056431528
0	4846	401009.853668371251	1735.6971583329
0	4859	401927.95489034619	2094.4002139382
0	4868	402746.391737507692	2126.6714544967
0	4873	403185.736222146115	1818.2917360682
0	4886	404202.880716836116	2274.9258264899
0	4895	405079.13922811862	2332.7474906109
0	4900	405408.429515082426	1790.7016136684
0	4909	405960.663697589225	1757.7829807531
0	4918	407149.289413495026	2070.1501853764
0	4927	407646.777681866698	1773.8101051189
0	4940	408337.891459604762	1643.818386225
0	4947	408949.087108857967	1641.9088654686
0	4954	409434.743073815517	1622.0446347725
0	4963	410467.978254798837	2130.0867951941
0	4974	411390.923982253336	2196.0276225116
0	4981	411896.16187973883	1949.7471073642
0	4990	412689.242200925983	1995.1569135301
0	5001	413687.761080684178	2100.151909003
0	5008	414037.671009264924	1670.8626088221
0	5019	415215.726626850702	2112.3134436551
0	5028	416002.205302845724	2014.2388700042
0	5037	416649.855529284142	2250.2907211427
0	5044	417047.72296012383	1792.2828186303
0	5055	418089.777991734483	2034.9631464109
0	5066	418687.337382556909	1958.5691520944
0	5075	419532.422254839951	2005.7453761809
0	5080	420243.033376475835	1908.0099045765
0	5089	421085.742031736338	2398.4046491794
0	5102	421982.780804811084	2450.3585499711
0	5107	422339.982128469312	1918.2413069531
0	5116	423149.16509874169	1984.7733790521
0	5125	423645.723350532392	1662.9425457213
0	5136	424383.115756977388	1553.4329130314
0	5143	424764.043885516041	1413.300772151
0	5154	425796.841130778232	1759.081585519
0	5163	426201.709024887571	1570.1637990307
0	5174	427371.13792374734	2127.0867033396
0	5179	427907.141145318785	2037.9507530015
0	5190	428709.386017033869	1954.3452561367
0	5197	429182.211332302579	1811.0734085552
0	5210	430430.982352048198	2368.6564932112
0	5219	430848.623270401771	1990.3350450564
0	5226	431366.569306561763	1822.0777088776
0	5237	432475.128146633546	2044.1457945853
0	5242	432982.907695882063	2134.2844254803
0	5255	433978.067704103928	2286.2216987181
0	5260	434335.082418937277	1859.9542723037
0	5271	435313.434636220377	2016.5285589639
0	5278	435887.808850267943	1909.741146164
0	5287	436448.902135435532	1775.0950624701
0	5298	437309.077905491035	1907.9016292468
0	5305	437684.887507092248	1590.6346326694
0	5316	438619.051759969483	2061.2076486927
0	5323	438968.639134336303	1586.122676963
0	5336	440238.75468140472	2083.8666586205
0	5345	441082.742711110081	2144.478766853
0	5352	441415.746487816836	1883.3742201794
0	5361	442261.439852044027	2022.6851706393
0	5368	443204.242330882739	2121.4996197727
0	5381	444233.202528208535	2521.5020787902
0	5386	444807.929971301969	2341.599534452
0	5395	445619.344627484721	2285.9236534685
0	5408	446564.558796677779	2331.3562684692
0	5413	446903.098011435981	1789.5207235124
0	5422	447525.515635404777	1667.3887589481
0	5431	447945.345269283321	1380.7864726055
0	5442	449200.716733653139	1978.8426781073
0	5449	449695.584554923739	1922.8398850188
0	5460	450694.80390418325	2045.0048540253
0	5467	451185.93857260425	1859.9029422272
0	5476	451795.889117242809	1628.8154876791
0	5485	452696.275079716037	1702.2904770914
0	5498	453776.777695817913	2159.409396071
0	5505	454457.803334249224	2271.2206321768
0	5514	455435.905858129303	2383.8626273442
0	5523	456046.647178335156	2269.8694825172
0	5534	456853.512547630857	2198.9008989651
0	5543	457570.514114107977	2033.3202803973
0	5550	458421.659182431217	2125.8336046245
0	5559	459260.318662086542	2406.8061144557
0	5566	459815.43791955341	2244.9238054454
0	5577	460773.818131629417	2317.196589103
0	5584	461427.850812580476	2132.101467764
0	5597	462444.272661348844	2282.6032770798
0	5606	463020.099977776447	2127.4093355052
0	5615	463550.453499890903	1827.5484049693
0	5620	463968.832594854796	1524.559933506
0	5629	464939.414111617991	1919.3141338415
0	5640	465818.564227502832	2268.1107276119
0	5649	466522.402140917295	2234.8952678964
0	5660	467413.181345025116	2255.269751139
0	5665	468115.25355298076	2289.9556182325
0	5674	468674.219528446012	2014.4239421468
0	5685	469834.696750855111	2421.51540583
0	5692	470427.681679045819	2284.832256753
0	5703	471196.142541803458	2173.3091976028
0	5712	471995.701499283352	2145.5142089166
0	5719	472491.559708630704	1907.0032898337
0	5730	473052.127457689532	1653.7131814286
0	5737	473579.64360793125	1462.6582469791
0	5748	474600.636691320726	1951.5833656769
0	5757	475486.634839000219	2305.3428900428
0	5766	476267.157947598064	2276.1691706255
0	5775	477018.853604793588	2166.389497323
0	5784	477681.3965541311	1998.0221922509
0	5793	478280.888330703641	1962.574359728
0	5804	479122.547761257778	2081.5106252208
0	5813	480004.726859740953	2261.4168356638
0	5820	480639.137058053206	2114.9262742605
0	5831	481382.708171289454	2260.1604100317
0	5838	481965.524362726177	1960.7975029852
0	5845	482915.851320605765	2237.0744425803
0	5858	483767.102749832014	2384.3945785426
0	5865	484604.100796161259	2350.0642853323
0	5874	485360.413227975408	2291.3710024673
0	5881	485692.556306999216	1925.4535571672
0	5890	486435.371165117289	1779.8295216635
0	5903	487983.099516620898	2559.0751270764
0	5910	488524.325274908954	2232.1942645591
0	5919	489216.71416517351	2035.0385030732
0	5926	489834.780680201986	1851.6811635811
0	5937	490599.861428327897	2023.9581448026
0	5946	491168.224113620856	1730.9822834563
0	5957	491863.26285805557	1873.102586763
0	5964	492653.758081700691	2015.9740221687
0	5971	493402.451155940109	2163.5498412419
0	5982	494252.207758650223	2388.9449005947
0	5991	494946.002145577261	2202.5219068397
0	5998	495253.586069773922	1640.0091350544
0	6009	496403.865951206575	1976.1022426654
0	6018	496996.394161367829	1863.5934859514
0	6027	497487.669153604697	1581.6083962563
0	6038	498370.563991321291	1894.6328143124
0	6045	498891.891549574251	1867.6314256154
0	6052	499417.89512783293	1859.9152022973
0	6057	499831.228014500852	1460.6640231796
0	6070	501104.519827477674	2092.0994955115
0	6079	501667.508772667538	1830.0331099425
0	6084	502029.813312599476	1352.7037873864
0	6099	503655.108889332082	2308.459224645
0	6106	504131.979056121822	2002.9325448442
0	6115	504531.666254298802	1569.082323974
0	6128	505792.175629036541	2044.4721470587
0	6137	506515.65903048035	2043.9345098566
0	6142	507165.006885118822	2169.02422118
0	6155	508022.791868867392	2230.6162398309
0	6160	508329.835925996343	1814.176895516
0	6173	509400.831542350391	1992.3018291593
0	6182	510240.975253237451	2218.1833843701
0	6187	510689.473983133251	1969.4735732395
0	6198	511702.988855727057	2302.1573133767
0	6209	512255.484033096622	2014.5087798592
0	6214	512753.460072632919	1799.1359266452
0	6223	513564.524504402693	1813.3781382814
0	6234	514366.807584743988	2111.3235516474
0	6241	515002.464961074334	1862.2739511542
0	6252	515881.863758666483	2098.7775026355
0	6263	516878.255758853671	2502.1990223788
0	6272	517719.804135058117	2549.5204837527
0	6279	518353.619663463947	2309.215007443
0	6286	518708.42257901099	1830.1668201573
0	6295	519669.187393086073	1949.383258028
0	6306	520434.180009132294	2004.784423532
0	6315	521154.73672281955	2181.1837937683
0	6324	522086.589312739714	2251.4378480148
0	6331	522501.510160742371	1948.0525522493
0	6340	523070.079076197042	1770.1519166585
0	6351	523789.393307827456	1615.567127103
0	6358	524115.665179817049	1435.7142083813
0	6371	525287.313009426042	2016.1628731526
0	6380	526149.755175970539	2298.9316944033
0	6387	526832.824389729693	2437.6792829018
0	6394	527225.747161544904	1938.4341521189
0	6407	528483.744033984884	2333.9888580143
0	6416	529203.43594187875	2364.8735932074
0	6425	529906.603282084732	2170.5260442104
0	6430	530316.636803140907	1832.892769156
0	6441	531085.82804105249	1882.3920991737
0	6448	531674.829165218441	1768.2258831337
0	6457	532098.744138842492	1713.3407439105
0	6468	533226.646218029826	2001.3153148815
0	6479	533947.747352672784	1862.0160806458
0	6486	534307.70361288455	1718.0864788592
0	6495	535551.919873477935	2296.4324093889
0	6504	536408.437934378206	2460.6905817054
0	6513	536805.567362671762	2061.5973686334
0	6520	537640.945762395903	2007.8942171764
0	6529	538329.894826607823	1908.23486913
0	6540	539289.102357253477	2209.8027027212
0	6547	539697.466386342466	1790.4089394026
0	6558	540556.010526046202	2006.9768059999
0	6569	541345.234821690291	1938.9366188552
0	6574	541711.245302902579	1745.3726153355
0	6583	542559.598238300577	1904.2998769786
0	6594	543365.260633640035	2020.0258119497
0	6601	543910.701477248266	1675.4809116013
0	6614	545270.047465385914	2343.3838512283
0	6619	545587.205729819879	2054.8873753287
0	6628	546296.04484098968	1894.9836899992
0	6637	547229.285803204447	1959.2383378185
0	6648	548032.454414432913	2040.6911948696
0	6655	548587.727908277929	1929.6450166963
0	6668	549842.706113727809	2295.7855656277
0	6673	550274.797123577491	2058.1354255322
0	6682	550734.390005003707	1777.891101921
0	6691	551341.197374090598	1498.4912603628
0	6702	551995.75506560509	1517.5550663844
0	6711	552732.902545994193	1832.3181712534
0	6722	553410.389820439786	1914.0296900645
0	6731	554167.634780891285	1969.8259638157
0	6736	554663.147682091267	1915.1009232737
0	6745	555622.33946230267	2211.9496418629
0	6754	556345.291763870091	2177.6569829788
0	6763	557198.069038521544	2151.2706046924
0	6776	558040.96353189093	2179.2776125018
0	6781	558399.476763233588	1744.9550859164
0	6790	558941.958900494547	1464.185075881
0	6799	559919.823847152338	1878.8603152614
0	6810	560923.636114317971	2147.5587429944
0	6821	561872.851596493321	2252.9368564021
0	6830	562307.955873431685	2024.3674125988
0	6839	563156.890854891437	2139.2428762279
0	6844	563795.338699361357	1922.487102868
0	6855	564609.125186316716	2301.169312885
0	6864	565067.042323434773	1910.1514685433
0	6875	566150.494378572377	2120.5413835589
0	6882	566655.694806017029	2024.0764620714
0	6889	567156.807201169479	1722.0791495405
0	6902	568118.607949884656	1968.1135713123
0	6907	568467.354834638584	1706.0783760622
0	6918	569635.672750650022	2016.7637325358
0	6929	570424.784545227933	2306.1765953433
0	6934	570809.890303015757	1957.6428857166
0	6943	571719.533193251166	2039.671585802
0	6952	572398.942801589194	1974.1582563613
0	6963	573600.724137341651	2575.7420129143
0	6974	574457.944872742566	2568.4250942431
0	6983	575331.869140919345	2544.1836519632
0	6990	576036.413660366135	2420.7243388519
0	6997	576365.767006902071	1907.8221341595
0	7006	577384.625612804713	2052.7564718854
0	7019	578661.09973909338	2523.8264897838
0	7024	579048.428236786323	2170.1913246419
0	7035	580061.059709591837	2292.5213419832
0	7044	580691.088939970405	2029.989200877
0	7055	581682.20900497404	2284.5515371766
0	7062	582124.818684859249	1871.4077549055
0	7069	582643.776447046596	1818.9933126792
0	7078	583814.04733113018	2131.8383261561
0	7089	584555.047054169747	2083.4518040065
0	7100	585712.444812571677	2416.9131353963
0	7109	586392.392449546653	2342.7572915331
0	7114	586899.198820721406	2076.7317117658
0	7123	587690.762173058513	1978.3173604868
0	7134	588362.980684312108	1970.5882347655
0	7141	588773.819869570482	1636.2419229001
0	7152	589587.531601125422	1779.1088621132
0	7159	590404.516207147437	1834.2202798929
0	7170	591194.455327559312	2041.9386897236
0	7179	591745.303174294581	2045.8237385843
0	7186	592371.173920389315	1897.8192745708
0	7195	593168.676623096739	1970.9756105673
0	7204	593909.170902427336	1955.3614052944
0	7215	594516.884214012002	1843.0488520302
0	7224	595466.62521106196	1894.5784653537
0	7235	596527.056357404268	2383.6259236559
0	7240	596935.084182629413	2178.691834677
0	7249	597695.317887794278	2053.1676471233
0	7258	598345.831681648321	1818.7753242441
0	7267	598900.399180222354	1609.3154945411
0	7280	600008.873849362187	1987.0485928841
0	7289	600646.632339013793	1767.031029705
0	7294	601020.659432932787	1409.641391784
0	7303	601549.300208548137	1540.4263591859
0	7316	602544.857062166609	1898.2247231528
0	7323	603138.935297727637	1623.7143439706
0	7332	603705.027451878466	1842.062082421
0	7343	604664.530929504015	2119.6738673374
1	3131	260336.085163056872	346
1	3136	261143.398188147716	347
1	3149	261937.262233905516	348
1	3158	262782.977412454806	349
1	3167	263369.696604553632	350
1	3176	264097.088703280337	351
1	3181	264680.222485167928	352
1	3192	265513.995776698016	353
1	3199	265884.314809693046	354
1	3212	266884.075931226857	355
1	3217	267321.685875859134	356
1	3226	267961.844031745591	357
1	3235	268748.578366404422	358
1	3244	269310.550571652152	359
1	3253	269782.606868678727	360
1	3262	270677.044657850661	361
1	3273	271683.056870615133	362
1	3280	272208.973451843508	363
1	3289	272631.176116084703	364
1	3302	273988.067821646133	365
1	3311	274798.093963181624	366
1	3320	275560.667839413533	367
1	3327	276220.146958529973	368
1	3338	277067.276210803563	369
1	3345	277750.626711593965	370
1	3352	278315.198881225685	371
1	3361	279145.529216760795	372
1	3370	279668.848390504743	373
1	3381	280684.80844739827	374
1	3388	281161.96664194579	375
1	3399	281916.858929302569	376
1	3406	282400.201082881566	377
1	3419	283954.005178855757	378
1	3428	284471.572551783199	379
1	3435	285297.509309928889	380
1	3444	285967.619227571437	381
1	3451	286741.271463409091	382
1	3460	287455.594701692486	383
1	3473	288519.310517516011	384
1	3478	288905.031794775301	385
1	3489	290066.65956876243	386
1	3496	290679.794639954368	387
1	3507	291821.228628745327	388
1	3516	292585.055708186725	389
1	3523	293139.471806399548	390
1	3532	293829.004738060782	391
1	3545	294921.093782968844	392
1	3552	295473.848284129078	393
1	3561	296392.806400358701	394
1	3570	296920.638757059375	395
1	3581	298182.460229890445	396
1	3590	298833.024039398903	397
1	3595	299201.277049770603	398
1	3606	300241.81414470079	399
1	3613	300650.086255744124	400
1	3622	301320.100241666685	401
1	3633	302160.638105403657	402
1	3644	302894.904969446386	403
1	3651	303326.060332451041	404
1	3660	304506.09937109987	405
1	3667	305165.934365568708	406
1	3676	305746.948286192517	407
1	3685	306171.125678624984	408
1	3696	307107.400805968817	409
1	3703	307642.652499815475	410
1	3714	308549.759935168575	411
1	3723	309351.004848489563	412
1	3734	309848.087404947753	413
1	3741	310395.705065270911	414
1	3750	310981.742611108373	415
1	3761	312333.091817423727	416
1	3770	312904.64070285673	417
1	3775	313228.390567889463	418
1	3788	314395.937886228811	419
1	3797	315288.298514625084	420
1	3802	315660.51850346851	421
1	3811	316319.549496006247	422
1	3820	317271.052770735723	423
1	3831	318045.562653942061	424
1	3838	318402.084258478163	425
1	3851	319465.925793210072	426
1	3858	320209.355316683678	427
1	3865	320659.489566553411	428
1	3874	321414.047478698222	429
1	3883	322289.643477229429	430
1	3896	323298.70688114318	431
1	3901	323648.719229316366	432
1	3910	324191.794578591389	433
1	3921	325327.114824112532	434
1	3928	326216.803578799618	435
1	3937	327047.89627944122	436
1	3946	327787.79766904193	437
1	3959	328471.979331504582	438
1	3964	328948.31811217594	439
1	3973	329622.766733262717	440
1	3984	330561.573886452272	441
1	3995	331489.742601430073	442
1	4004	331931.118337763503	443
1	4011	332606.94537316452	444
1	4022	333454.790135286778	445
1	4029	334272.634791070625	446
1	4040	334810.093364166126	447
1	4045	335159.876339742944	448
1	4054	335719.555901689485	449
1	4063	336564.216139912636	450
1	4072	337474.282102799074	451
1	4085	338420.248813927205	452
1	4094	339205.321808997573	453
1	4099	339730.277006328137	454
1	4112	340641.713693272354	455
1	4121	341129.033726267548	456
1	4130	342019.628468714686	457
1	4139	342905.110884178461	458
1	4148	343774.101864919098	459
1	4153	344112.834433699058	460
1	4162	345196.181125240432	461
1	4171	345798.22572511624	462
1	4182	346383.394636027547	463
1	4193	346969.553843513163	464
1	4202	347675.802096538278	465
1	4211	348382.515570893916	466
1	4220	349231.538154836776	467
1	4225	349531.992476480114	468
1	4234	350238.667079480397	469
1	4243	350697.956602787632	470
1	4252	351648.670127894762	471
1	4261	352159.542681835625	472
1	4274	353255.88489621881	473
1	4283	354032.621316332403	474
1	4288	354700.542935589361	475
1	4297	355241.672595078159	476
1	4306	356222.795877652276	477
1	4317	357163.842896651509	478
1	4328	357828.989318478885	479
1	4333	358205.156497238236	480
1	4344	358816.156154964152	481
1	4353	359826.41661143865	482
1	4364	360787.725370517033	483
1	4371	361157.844116399097	484
1	4380	361952.906070929053	485
1	4391	362802.192093897643	486
1	4400	363587.649964308398	487
1	4405	363973.263167124273	488
1	4416	364909.0941587929	489
1	4427	365529.327722266348	490
1	4432	365981.752188038113	491
1	4445	367140.805835276874	492
1	4450	367531.006468227165	493
1	4459	368372.64045942578	494
1	4468	369119.657529378342	495
1	4479	369972.416422935236	496
1	4486	370599.648694368112	497
1	4499	371381.505578476968	498
1	4508	372097.963969549197	499
1	4513	372482.774046203154	500
1	4526	373770.188289787654	501
1	4531	374132.22904633734	502
1	4542	375285.890614148264	503
1	4553	376166.527492878993	504
1	4560	376687.235997151618	505
1	4571	377434.744643233751	506
1	4578	377960.422620317002	507
1	4589	378824.328833073412	508
1	4598	379703.267270419781	509
1	4603	380169.274878362228	510
1	4614	380902.195778628846	511
1	4625	382057.147130649571	512
1	4630	382431.428431207348	513
1	4639	383108.058118075167	514
1	4650	384255.847761360963	515
1	4661	385148.890747502481	516
1	4668	385911.396351316979	517
1	4675	386310.391405876761	518
1	4686	387325.482685212081	519
1	4693	387971.159976907109	520
1	4702	388613.951715594193	521
1	4711	389228.213972412085	522
1	4720	389982.367249159178	523
1	4731	390796.019782125986	524
1	4738	391461.071428516916	525
1	4751	393034.390125470272	526
1	4756	393363.957092072851	527
1	4769	394288.651508465445	528
1	4774	394737.178614176846	529
1	4783	395055.265126051417	530
1	4792	396470.098980562797	531
1	4801	397119.301656167991	532
1	4810	398197.894258657506	533
1	4821	399238.644156279077	534
1	4830	399704.671106161585	535
1	4837	400302.532085543534	536
1	4846	401009.853668371251	537
1	4859	401927.95489034619	538
1	4868	402746.391737507692	539
1	4873	403185.736222146115	540
1	4886	404202.880716836116	541
1	4895	405079.13922811862	542
1	4900	405408.429515082426	543
1	4909	405960.663697589225	544
1	4918	407149.289413495026	545
1	4927	407646.777681866698	546
1	4940	408337.891459604762	547
1	4947	408949.087108857967	548
1	4954	409434.743073815517	549
1	4963	410467.978254798837	550
1	4974	411390.923982253336	551
1	4981	411896.16187973883	552
1	4990	412689.242200925983	553
1	5001	413687.761080684178	554
1	5008	414037.671009264924	555
1	5019	415215.726626850702	556
1	5028	416002.205302845724	557
1	5037	416649.855529284142	558
1	5044	417047.72296012383	559
1	5055	418089.777991734483	560
1	5066	418687.337382556909	561
1	5075	419532.422254839951	562
1	5080	420243.033376475835	563
1	5089	421085.742031736338	564
1	5102	421982.780804811084	565
1	5107	422339.982128469312	566
1	5116	423149.16509874169	567
1	5125	423645.723350532392	568
1	5136	424383.115756977388	569
1	5143	424764.043885516041	570
1	5154	425796.841130778232	571
1	5163	426201.709024887571	572
1	5174	427371.13792374734	573
1	5179	427907.141145318785	574
1	5190	428709.386017033869	575
1	5197	429182.211332302579	576
1	5210	430430.982352048198	577
1	5219	430848.623270401771	578
1	5226	431366.569306561763	579
1	5237	432475.128146633546	580
1	5242	432982.907695882063	581
1	5255	433978.067704103928	582
1	5260	434335.082418937277	583
1	5271	435313.434636220377	584
1	5278	435887.808850267943	585
1	5287	436448.902135435532	586
1	5298	437309.077905491035	587
1	5305	437684.887507092248	588
1	5316	438619.051759969483	589
1	5323	438968.639134336303	590
1	5336	440238.75468140472	591
1	5345	441082.742711110081	592
1	5352	441415.746487816836	593
1	5361	442261.439852044027	594
1	5368	443204.242330882739	595
1	5381	444233.202528208535	596
1	5386	444807.929971301969	597
1	5395	445619.344627484721	598
1	5408	446564.558796677779	599
1	5413	446903.098011435981	600
1	5422	447525.515635404777	601
1	5431	447945.345269283321	602
1	5442	449200.716733653139	603
1	5449	449695.584554923739	604
1	5460	450694.80390418325	605
1	5467	451185.93857260425	606
1	5476	451795.889117242809	607
1	5485	452696.275079716037	608
1	5498	453776.777695817913	609
1	5505	454457.803334249224	610
1	5514	455435.905858129303	611
1	5523	456046.647178335156	612
1	5534	456853.512547630857	613
1	5543	457570.514114107977	614
1	5550	458421.659182431217	615
1	5559	459260.318662086542	616
1	5566	459815.43791955341	617
1	5577	460773.818131629417	618
1	5584	461427.850812580476	619
1	5597	462444.272661348844	620
1	5606	463020.099977776447	621
1	5615	463550.453499890903	622
1	5620	463968.832594854796	623
1	5629	464939.414111617991	624
1	5640	465818.564227502832	625
1	5649	466522.402140917295	626
1	5660	467413.181345025116	627
1	5665	468115.25355298076	628
1	5674	468674.219528446012	629
1	5685	469834.696750855111	630
1	5692	470427.681679045819	631
1	5703	471196.142541803458	632
1	5712	471995.701499283352	633
1	5719	472491.559708630704	634
1	5730	473052.127457689532	635
1	5737	473579.64360793125	636
1	5748	474600.636691320726	637
1	5757	475486.634839000219	638
1	5766	476267.157947598064	639
1	5775	477018.853604793588	640
1	5784	477681.3965541311	641
1	5793	478280.888330703641	642
1	5804	479122.547761257778	643
1	5813	480004.726859740953	644
1	5820	480639.137058053206	645
1	5831	481382.708171289454	646
1	5838	481965.524362726177	647
1	5845	482915.851320605765	648
1	5858	483767.102749832014	649
1	5865	484604.100796161259	650
1	5874	485360.413227975408	651
1	5881	485692.556306999216	652
1	5890	486435.371165117289	653
1	5903	487983.099516620898	654
1	5910	488524.325274908954	655
1	5919	489216.71416517351	656
1	5926	489834.780680201986	657
1	5937	490599.861428327897	658
1	5946	491168.224113620856	659
1	5957	491863.26285805557	660
1	5964	492653.758081700691	661
1	5971	493402.451155940109	662
1	5982	494252.207758650223	663
1	5991	494946.002145577261	664
1	5998	495253.586069773922	665
1	6009	496403.865951206575	666
1	6018	496996.394161367829	667
1	6027	497487.669153604697	668
1	6038	498370.563991321291	669
1	6045	498891.891549574251	670
1	6052	499417.89512783293	671
1	6057	499831.228014500852	672
1	6070	501104.519827477674	673
1	6079	501667.508772667538	674
1	6084	502029.813312599476	675
1	6099	503655.108889332082	676
1	6106	504131.979056121822	677
1	6115	504531.666254298802	678
1	6128	505792.175629036541	679
1	6137	506515.65903048035	680
1	6142	507165.006885118822	681
1	6155	508022.791868867392	682
1	6160	508329.835925996343	683
1	6173	509400.831542350391	684
1	6182	510240.975253237451	685
1	6187	510689.473983133251	686
1	6198	511702.988855727057	687
1	6209	512255.484033096622	688
1	6214	512753.460072632919	689
1	6223	513564.524504402693	690
1	6234	514366.807584743988	691
1	6241	515002.464961074334	692
1	6252	515881.863758666483	693
1	6263	516878.255758853671	694
1	6272	517719.804135058117	695
1	6279	518353.619663463947	696
1	6286	518708.42257901099	697
1	6295	519669.187393086073	698
1	6306	520434.180009132294	699
1	6315	521154.73672281955	700
1	6324	522086.589312739714	701
1	6331	522501.510160742371	702
1	6340	523070.079076197042	703
1	6351	523789.393307827456	704
1	6358	524115.665179817049	705
1	6371	525287.313009426042	706
1	6380	526149.755175970539	707
1	6387	526832.824389729693	708
1	6394	527225.747161544904	709
1	6407	528483.744033984884	710
1	6416	529203.43594187875	711
1	6425	529906.603282084732	712
1	6430	530316.636803140907	713
1	6441	531085.82804105249	714
1	6448	531674.829165218441	715
1	6457	532098.744138842492	716
1	6468	533226.646218029826	717
1	6479	533947.747352672784	718
1	6486	534307.70361288455	719
1	6495	535551.919873477935	720
1	6504	536408.437934378206	721
1	6513	536805.567362671762	722
1	6520	537640.945762395903	723
1	6529	538329.894826607823	724
1	6540	539289.102357253477	725
1	6547	539697.466386342466	726
1	6558	540556.010526046202	727
1	6569	541345.234821690291	728
1	6574	541711.245302902579	729
1	6583	542559.598238300577	730
1	6594	543365.260633640035	731
1	6601	543910.701477248266	732
1	6614	545270.047465385914	733
1	6619	545587.205729819879	734
1	6628	546296.04484098968	735
1	6637	547229.285803204447	736
1	6648	548032.454414432913	737
1	6655	548587.727908277929	738
1	6668	549842.706113727809	739
1	6673	550274.797123577491	740
1	6682	550734.390005003707	741
1	6691	551341.197374090598	742
1	6702	551995.75506560509	743
1	6711	552732.902545994193	744
1	6722	553410.389820439786	745
1	6731	554167.634780891285	746
1	6736	554663.147682091267	747
1	6745	555622.33946230267	748
1	6754	556345.291763870091	749
1	6763	557198.069038521544	750
1	6776	558040.96353189093	751
1	6781	558399.476763233588	752
1	6790	558941.958900494547	753
1	6799	559919.823847152338	754
1	6810	560923.636114317971	755
1	6821	561872.851596493321	756
1	6830	562307.955873431685	757
1	6839	563156.890854891437	758
1	6844	563795.338699361357	759
1	6855	564609.125186316716	760
1	6864	565067.042323434773	761
1	6875	566150.494378572377	762
1	6882	566655.694806017029	763
1	6889	567156.807201169479	764
1	6902	568118.607949884656	765
1	6907	568467.354834638584	766
1	6918	569635.672750650022	767
1	6929	570424.784545227933	768
1	6934	570809.890303015757	769
1	6943	571719.533193251166	770
1	6952	572398.942801589194	771
1	6963	573600.724137341651	772
1	6974	574457.944872742566	773
1	6983	575331.869140919345	774
1	6990	576036.413660366135	775
1	6997	576365.767006902071	776
1	7006	577384.625612804713	777
1	7019	578661.09973909338	778
1	7024	579048.428236786323	779
1	7035	580061.059709591837	780
1	7044	580691.088939970405	781
1	7055	581682.20900497404	782
1	7062	582124.818684859249	783
1	7069	582643.776447046596	784
1	7078	583814.04733113018	785
1	7089	584555.047054169747	786
1	7100	585712.444812571677	787
1	7109	586392.392449546653	788
1	7114	586899.198820721406	789
1	7123	587690.762173058513	790
1	7134	588362.980684312108	791
1	7141	588773.819869570482	792
1	7152	589587.531601125422	793
1	7159	590404.516207147437	794
1	7170	591194.455327559312	795
1	7179	591745.303174294581	796
1	7186	592371.173920389315	797
1	7195	593168.676623096739	798
1	7204	593909.170902427336	799
1	7215	594516.884214012002	800
1	7224	595466.62521106196	801
1	7235	596527.056357404268	802
1	7240	596935.084182629413	803
1	7249	597695.317887794278	804
1	7258	598345.831681648321	805
1	7267	598900.399180222354	806
1	7280	600008.873849362187	807
1	7289	600646.632339013793	808
1	7294	601020.659432932787	809
1	7303	601549.300208548137	810
1	7316	602544.857062166609	811
1	7323	603138.935297727637	812
1	7332	603705.027451878466	813
1	7343	604664.530929504015	814

