version 2
run Pipelined_3Teachers-77-20190105-10:57:35-2844
attr configname Pipelined_3Teachers
attr datetime 20190105-10:57:35
attr experiment Pipelined_3Teachers
attr inifile ../simulations/omnetpp.ini
attr iterationvars "$0=\"uniform\""
attr iterationvarsf uniform-
attr measurement "$0=\"uniform\""
attr network PipelinedExamSession
attr processid 2844
attr repetition 77
attr replication #77
attr resultdir results
attr runnumber 77
attr seedset 77
param **.teachersNumber 3
param **.answerTimeDistribution "\"uniform\""
param **.minUniform 300
param **.maxUniform 900
param **.scaleLognormal 6.2854
param **.shapeLognormal 0.4724

vector 0 PipelinedExamSession examinationTime:vector ETV
attr source examFinished
vector 1 PipelinedExamSession studentID:vector ETV
attr source student
0	3185	260773.317522928142	2423.7569906283
0	3194	261492.790202982747	2406.7905242555
0	3203	262183.824590547034	2203.9436476305
0	3208	262576.766978809634	1803.4494558815
0	3221	263884.220836730698	2391.430633748
0	3230	264709.236017894024	2525.411427347
0	3235	265014.714289968858	1996.450519748
0	3244	265398.591977125058	1514.3711403944
0	3253	266480.266527598749	1771.0305097047
0	3266	267629.668078618148	2255.0782180857
0	3271	267938.873745454499	1806.3294994645
0	3282	268900.539799081185	2100.1059578732
0	3285	269237.692574830749	1608.0244962126
0	3300	270510.276995133632	2047.1934549976
0	3311	271465.091782948026	2137.4913790729
0	3320	272044.979729549983	2028.2842466142
0	3325	272778.557116957405	2097.1958675422
0	3336	273216.729105915898	1751.6373229679
0	3343	274071.052757045278	2026.0730274953
0	3354	274752.542700106302	1933.0952291843
0	3365	275515.533410059311	1884.8235984799
0	3370	276029.163052747049	1890.4780897312
0	3383	277266.834559338191	2506.8021504208
0	3390	277952.737540472323	2437.204130413
0	3399	278913.493868149841	2537.2879793867
0	3410	279653.461677627662	2386.6271182895
0	3419	280299.696244625399	2151.9436576869
0	3426	280838.686165306742	1864.4380578306
0	3437	281718.159668287287	2064.6979906596
0	3444	282187.557994527767	1887.8617499024
0	3451	282660.092864697824	1717.4640260171
0	3464	284291.620480874578	2573.4608125873
0	3473	284921.279402263487	2309.2870120425
0	3482	285580.084132310028	2163.4564074688
0	3487	285990.000237431402	1698.3797565568
0	3496	286355.654807668204	1434.3754054047
0	3505	287129.557908140149	1549.4737758301
0	3518	288325.953655550282	2099.3956600316
0	3525	289031.490820320349	2246.4011629578
0	3536	289636.260114004861	1987.2648871969
0	3541	290005.555638950344	1679.6019834001
0	3554	291208.109808946054	2123.1931673829
0	3559	291617.240687180336	1980.9805731755
0	3570	292628.751114942159	2292.3158226069
0	3581	293809.319354267816	2601.2095453218
0	3588	294456.199542945276	2396.203117026
0	3599	295313.255710573892	2379.9961455166
0	3608	296093.309654854263	2283.9903005864
0	3615	296900.511114299322	2423.9510923158
0	3626	297676.746200630466	2363.4904900566
0	3631	298108.686424931536	2015.3767700773
0	3642	299239.460005704338	2336.5742246155
0	3649	299564.447904238503	1887.701703608
0	3658	300265.755720483165	1700.2170212567
0	3667	300751.732469676088	1509.8039451521
0	3678	302091.370154405039	2160.4029213544
0	3685	302551.348315458771	1994.8706187308
0	3694	303113.887923583415	1811.3686671015
0	3707	304405.265945987803	2262.444285024
0	3714	305146.376843377975	2197.5201702677
0	3721	305692.57477414797	1989.6266100928
0	3732	306789.374723704559	2384.1087777168
0	3739	307610.835667932433	2376.771948114
0	3748	308046.694144047824	2039.9640753865
0	3757	308852.896640170392	1953.2887812238
0	3768	309858.564223442253	2178.5260994453
0	3779	310749.738560244468	2340.0106132496
0	3788	311372.193224122775	2160.2000660263
0	3795	312107.751844218028	2020.2597363386
0	3804	312658.09458098377	1908.3560207393
0	3813	313365.578445559395	1993.3852214366
0	3822	314018.903021095348	1777.2406503092
0	3829	314601.157771702883	1915.1495353784
0	3842	315583.80616167563	2128.5475084092
0	3849	316005.394561635358	1722.4239869043
0	3856	316328.0982165132	1568.6539601069
0	3865	317044.42813619974	1460.6219745241
0	3876	318168.0086297449	1948.8897574134
0	3883	318540.326843457324	1875.8763429243
0	3896	319524.191832449315	2072.2149493173
0	3901	319829.084779322175	1618.7778236344
0	3910	320644.426308665452	1617.0125224628
0	3921	321672.727233963115	2148.5354015138
0	3930	322199.735231464757	1863.5097521357
0	3937	322599.307926837383	1740.4362821952
0	3946	323671.809226088254	1985.9967104159
0	3959	324853.014153521536	2349.7286965605
0	3966	325497.216102713747	2099.8645354528
0	3975	326200.285920873313	2064.7902322467
0	3982	326739.835849497496	1886.821695976
0	3993	327797.21635901372	2096.5983160771
0	4000	328192.040455201669	1751.2180686928
0	4009	329197.617494780599	2007.6260854024
0	4018	329675.861837714939	1605.7100669481
0	4029	330781.981981359451	1931.7138832994
0	4036	331149.997737072437	1503.7179247476
0	4049	332164.71330737698	2127.9003099538
0	4056	332912.19013785015	2093.8206918072
0	4065	333530.589400744095	2066.9220645446
0	4076	334614.005162240967	2449.291854864
0	4085	335391.508797369927	2341.6980222333
0	4094	335803.84922591041	1998.0986843817
0	4103	336489.428059151426	1875.4228969105
0	4112	337086.457015620574	1694.9482182506
0	4117	337598.769197193935	1794.9199712835
0	4126	338391.508549824386	1902.080490673
0	4139	339502.971517061844	2416.5145014413
0	4144	339904.122934956133	1973.7311476842
0	4149	340341.24040575701	1647.1306434833
0	4162	341435.999783640757	1933.0282665789
0	4171	342029.871569853306	1685.0079502445
0	4184	343081.538541941002	1963.267596066
0	4191	343679.614292224899	1953.756331047
0	4200	344376.604471821368	1876.0200073477
0	4207	344959.937233943523	1878.3986920025
0	4216	345606.621932191804	1770.3898903448
0	4225	346387.781446566835	1947.3166201729
0	4238	347311.876443307877	2060.2775432635
0	4243	347727.426583925292	1820.4141412396
0	4252	348563.307963078872	1775.4923522472
0	4261	349166.093463124737	1854.2170198169
0	4270	350027.976792817966	1989.2548837233
0	4279	350608.718121796877	1758.8499619626
0	4290	351927.787376800583	2295.308572473
0	4299	352743.505360465528	2231.2361873221
0	4310	353758.787516970218	2354.9847275019
0	4319	354440.83237303424	2343.7841938343
0	4326	354841.430343361602	1880.7210013736
0	4333	355638.393747713448	1879.6062307432
0	4342	356302.297987975212	1861.465614941
0	4355	357397.51363056715	2208.2347000949
0	4362	358066.296328743951	2070.1915543992
0	4373	358941.438414808394	2302.9260333627
0	4380	359569.091524137215	2171.5778935701
0	4387	360224.667890835585	2147.0326005947
0	4396	360821.658908855202	1880.2204940468
0	4407	361926.846086047621	2207.2254778817
0	4414	362324.97670124288	1862.3621460982
0	4425	363075.725923804598	1949.5986693073
0	4432	363623.371879337387	1641.8934829999
0	4443	364534.33681195605	2050.3041510936
0	4452	365312.943261768701	1948.5156818759
0	4463	366294.040522584723	2259.9443058483
0	4470	366799.161711428346	2044.319249969
0	4479	367680.593701126086	2240.9147653263
0	4488	368592.139158351379	2298.0986357667
0	4499	369167.925232322919	2159.1133936308
0	4504	369859.647468337822	2003.6165188998
0	4517	370795.236299280109	2049.1623322014
0	4526	371347.998452000352	2180.0732196774
0	4533	371926.742884889277	1859.204942314
0	4540	372530.221963394466	1734.9856641144
0	4549	373349.514578562263	2001.5161265619
0	4558	373836.537914956021	1744.034757698
0	4569	374979.262540675732	2090.20325155
0	4576	375601.661809813264	2014.8966230918
0	4585	376807.491273572702	2352.8594326694
0	4594	377204.632520210031	2076.0272102896
0	4607	378322.961500240523	2300.9626704734
0	4614	378688.650148222256	1817.9529797751
0	4621	379347.309927362982	1697.9412293527
0	4630	380045.313024194944	1722.3515239544
0	4643	381100.598767586085	2114.9180650245
0	4648	381401.211264682966	1666.9498126488
0	4661	382427.53243823539	2068.8468952663
0	4670	383325.746730901334	2225.1479633152
0	4675	383629.476074874434	1840.2335573919
0	4686	384718.466102471609	2290.9336642362
0	4693	385346.813546307419	2021.0668154061
0	4706	386319.300885312293	2107.8997787554
0	4713	386679.642047686536	1878.4578400198
0	4720	387184.118774207343	1659.0514773969
0	4729	388259.612614614923	1940.3117293026
0	4742	389164.637740608338	2031.3672810327
0	4747	389526.717753103036	1704.5406857505
0	4756	390428.348862240125	1886.9964044541
0	4769	391112.567603308742	1947.9298627004
0	4774	391518.105501774733	1622.7798288222
0	4787	392652.470366796513	1962.5721035991
0	4792	392961.653901636635	1849.0862983279
0	4803	393949.500484066118	1970.3848452307
0	4810	394428.107277955894	1775.6369111594
0	4823	395487.382606929203	2265.5737820081
0	4832	396362.736005662044	2332.3110838886
0	4839	397116.290622437408	2452.5450532325
0	4846	397644.260361883825	2156.8777549546
0	4855	398210.11531320404	1847.379307542
0	4866	399509.253581240809	2292.2343572136
0	4873	400049.945163214615	1933.7923404761
0	4882	400655.451038992068	1753.0856730882
0	4893	401495.999229513144	1960.2666482795
0	4904	402586.11492379572	2377.2523923777
0	4911	403205.511834612151	2108.4914346691
0	4920	404296.902133058791	2328.2515868079
0	4927	404707.717373035883	2121.6024492402
0	4936	405253.544710949098	1783.0880986992
0	4945	406261.501163290848	1910.2002252359
0	4954	406729.713049996679	1838.3502077311
0	4967	407858.496200200206	2226.1344531085
0	4972	408339.520162716544	1928.5124399699
0	4981	408918.141172220966	1794.7374892887
0	4990	409706.284597562661	1847.7883973625
0	5003	410680.605582520402	2077.7638299856
0	5012	411268.421130906827	2044.5872808807
0	5021	412149.97181575749	2336.7804933339
0	5026	412543.01787964072	1862.4122971203
0	5035	413326.941898232363	2058.5207673255
0	5048	414589.604990696572	2439.6331749391
0	5055	415318.89227167707	2404.921633238
0	5064	416126.040792139285	2411.0654517543
0	5071	416728.071807045528	2138.466816349
0	5082	417648.742841044479	2262.5144398771
0	5089	418011.462337290906	1766.2180103827
0	5100	419143.985087703951	2046.5951300226
0	5107	419526.83218703609	1721.3067824487
0	5118	420552.584423683622	2111.1465790775
0	5127	421575.332762813234	2280.8710088488
0	5134	422148.374604759777	2024.161734106
0	5143	423292.120991181621	2391.9464698993
0	5154	423800.861978950017	2031.7681922112
0	5165	424851.751517923588	2185.2363678161
0	5172	425276.974505977744	1849.3337519467
0	5179	425602.401462011078	1527.593715582
0	5188	426606.784763513172	1755.0332455896
0	5197	427530.418108636552	2011.5973175503
0	5206	428393.510853499213	1990.4045173433
0	5217	429224.232021113897	2105.1731502637
0	5228	430506.084866495843	2509.0166785754
0	5233	431105.104543268721	2281.9162321743
0	5242	431857.490866491612	2165.8154988661
0	5251	432665.776230068918	2159.6913635731
0	5260	433297.665763087612	2013.4072889574
0	5269	433730.280652083498	1647.3271833267
0	5282	434763.537250924896	1792.4772919156
0	5289	435149.844695488032	1446.2036187295
0	5300	436347.470281412866	2193.1640088558
0	5307	437008.760748105165	2245.2234971803
0	5318	437845.197729952674	2327.873739833
0	5327	438502.423900505569	2154.9536190927
0	5332	439028.021271899384	1979.3380515184
0	5341	439536.244202032726	1691.0464720801
0	5354	440739.318189024966	2236.8942885194
0	5361	441262.0194409043	1899.9330240302
0	5368	441895.668089250143	1726.4068643097
0	5379	442752.424127748277	2013.1059387233
0	5388	443340.582908224355	1823.3872648794
0	5397	443923.998714191881	1573.2637555338
0	5408	444768.143236404327	1978.2127089333
0	5413	445433.210929669482	1944.4424664136
0	5422	446266.295422241134	2194.0617837477
0	5431	446882.561746984762	2114.4185105804
0	5444	447546.437972411555	1948.8683313131
0	5453	448292.651012633038	1820.1847876422
0	5460	448990.687296073926	1934.6857409924
0	5467	449572.284028586042	2025.8460561745
0	5476	450029.53783865091	1736.8868260179
0	5485	451246.518572140528	2218.8747993205
0	5494	451700.806739693551	1793.7983962242
0	5503	452447.618699166967	1905.7859958149
0	5512	453352.267308672932	1972.9746638797
0	5521	453878.820019774181	1762.4490269925
0	5530	454636.019698670176	1706.7518597469
0	5543	455901.853016205175	2114.141972037
0	5552	456493.222819967238	2127.1038054954
0	5557	456961.629014695106	1722.8431774769
0	5566	457804.700212972281	1902.8471967671
0	5579	458772.649390390186	2279.4265704229
0	5586	459456.405743630646	2204.1636267677
0	5593	460131.64067580369	2073.5132386442
0	5606	461074.87925961618	2302.229869226
0	5615	461780.781028233512	2264.4768408034
0	5620	462415.472776209979	2107.131891232
0	5629	462762.750069284855	1687.8708096687
0	5642	464322.97105584298	2542.1900276095
0	5647	464885.304648382633	2264.6970709786
0	5658	465741.496837372004	2271.5005651116
0	5667	466501.896149246066	2178.9250934031
0	5674	466806.081593781754	1724.9766228721
0	5685	467927.385305101096	2059.9621728994
0	5694	468585.408841772049	1961.5841698833
0	5701	469068.938229745298	1697.4546077661
0	5710	469775.367358513221	1733.8352233171
0	5719	470454.051126726016	1834.3502559699
0	5728	471335.20924081099	1885.4560510721
0	5737	472127.589179948016	1979.9835276324
0	5750	472774.68352876608	1788.007467147
0	5759	473623.799366690262	2103.1394518912
0	5768	474433.427959028675	2107.378208125
0	5775	475226.610126765488	2451.9265979994
0	5786	476153.160506486936	2529.3611397967
0	5791	476469.329063594385	2035.9011045657
0	5804	477874.575424008115	2614.6012849174
0	5813	478644.619854167147	2491.4593476802
0	5820	479309.977367520376	2257.8052888624
0	5831	480120.33292804849	2245.7575040404
0	5840	480895.102939568503	2250.4830854014
0	5845	481381.218780018432	1958.5804474074
0	5854	481847.163104731633	1726.8301766831
0	5863	482615.613026311664	1720.5100867432
0	5876	483774.70882837665	2299.6927885339
0	5885	484615.032181050672	2457.8674431425
0	5892	485331.254231371029	2306.7683898378
0	5899	485772.95151301664	1998.24268464
0	5910	486579.520963551521	1964.4887825008
0	5919	487530.243922909766	2072.7325425949
0	5928	488319.066814100414	2077.604425326
0	5935	488794.450426334559	1748.3276737388
0	5944	489975.245429948017	2286.9768183678
0	5953	490716.637615906119	2180.4977194872
0	5966	491612.705986853733	2197.4604690447
0	5975	492231.984085310295	1983.2061017398
0	5984	493118.567020352974	2203.0270928051
0	5989	493810.530861094638	2197.8248742409
0	5998	494386.784906219735	2154.8008209094
0	6011	495373.430268606216	2254.8632482532
0	6020	496259.123961254999	2266.7887084186
0	6029	497112.649782048583	2412.815761473
0	6036	497550.352132832676	2176.9218642265
0	6047	498530.259069241628	2271.1351079866
0	6056	499298.264046991289	2185.6142649427
0	6061	499721.927134506449	1936.2642626278
0	6074	500496.550346352206	1966.2912771106
0	6083	501323.590703867422	2025.3266568761
0	6092	501990.875247074337	2067.4006544519
0	6099	502691.452451935084	2194.9021055829
0	6106	503393.510691169695	2069.9199873023
0	6117	504303.887718496891	2313.0124714226
0	6124	504815.648324741097	2065.9485351294
0	6133	505319.013890996621	1776.0266913101
0	6142	506299.669913481967	1869.7877611499
0	6151	507066.385555313947	1892.2898163088
0	6164	507974.756326479884	2007.0152349304
0	6173	508718.148928368511	1968.3090041857
0	6180	509548.373952554586	2277.7694534976
0	6187	509918.969625094953	1944.2132986151
0	6198	510852.279353980022	2134.1304256115
0	6207	511402.42853737441	1818.4986186214
0	6214	511845.785764139193	1725.2618197817
0	6223	512707.32538802554	1844.2385871895
0	6232	513461.193100595895	1719.1931201611
0	6241	514203.127518435988	1677.2331446875
0	6252	515085.899579152512	2005.1863733679
0	6263	515926.707215700346	2113.8729496859
0	6272	516585.639768373269	2189.9582718965
0	6279	517178.684940375436	2033.4113230929
0	6288	517727.997392742011	1801.2901770417
0	6297	518306.13775863317	1720.4979902599
0	6304	519165.618715295616	1961.1156344879
0	6317	520185.108261276084	2293.2270535268
0	6322	520579.067693185109	1851.8149771728
0	6331	521178.4464121331	1585.4504572693
0	6340	521649.350305600139	1464.2420443241
0	6349	522357.647530222358	1608.4115487523
0	6358	523378.835741803098	1897.2703666426
0	6367	523919.675202900591	1597.4542372394
0	6378	524649.262806493836	1787.7778855618
0	6389	525844.018343137625	2377.2429223638
0	6396	526407.283641351435	2212.9920914769
0	6405	526868.104111030746	1835.9662536532
0	6412	527273.767508938957	1429.7491658013
0	6423	528657.386247301522	2175.9692444466
0	6434	529422.439376777085	2339.920863742
0	6443	530186.232345504733	2232.1584640536
0	6450	530635.251481365459	1873.1460236013
0	6461	531774.780354648876	2352.3409778718
0	6468	532375.819651829126	2189.5873063244
0	6475	533094.671580148909	2071.0303392727
0	6484	533734.914775891277	1960.1344212424
0	6497	534784.603038802791	2123.7572947517
0	6502	535374.890467012349	1861.6753497161
0	6513	536278.153665829498	2305.1286453847
0	6520	536712.022860813934	1927.4198220111
0	6533	537843.813619762707	2308.4756587632
0	6540	538406.014842633206	2103.9256229997
0	6551	539223.171961633537	2158.2180636004
0	6558	540038.028697902385	2194.2150781397
0	6567	540672.475303709556	2163.3718119934
0	6576	541260.765278572266	2037.5933169387
0	6583	541913.216607878034	1874.0784286056
0	6594	542365.578822931324	1627.5440937839
0	6601	543184.016860462774	1729.3547793757
0	6614	544292.779334541459	2301.1051473208
0	6621	545009.558752644856	2232.6311430428
0	6630	545431.890573352624	1758.8221759535
0	6637	546152.357971016366	1859.5786364749
0	6648	547349.706130335157	2256.9310310762
0	6659	548036.874313792263	2296.6201197356
0	6666	548613.565166015227	2030.8164127171
0	6673	549266.8866408058	1881.8866266869
0	6684	550052.07860120577	2015.2042874135
0	6691	551145.436447067235	2244.1275766119
0	6700	551561.319758277435	1850.8203309495
0	6709	551954.545014398221	1459.4128560741
0	6718	552920.580323645893	1702.9929055832
0	6727	553950.531723490034	2073.9738172386
0	6740	554752.985544595916	2015.1354454458
0	6747	555254.903204832275	1771.0847446695
0	6756	556063.967851130341	1899.4229730684
0	6765	556581.927616149236	1828.9420715533
0	6774	557359.569806093398	2040.8745238557
0	6781	557695.107915904421	1588.6019967031
0	6790	558624.878167407635	1720.0998030603
0	6801	559560.788108920727	2130.7475897949
0	6810	560296.00854506721	2162.9794492386
0	6819	561010.507240193013	2002.8496587183
0	6830	561766.054841782947	2058.6765843909
0	6839	562657.069709105466	2340.0244594552
0	6846	563084.073937917177	2047.1626322251
0	6857	564167.276288615588	2401.2214468326
0	6866	564789.684872841511	2132.615163736
0	6873	565196.814687643249	1892.872642586
0	6884	566316.629193490419	2149.3529048748
0	6891	566873.810774507049	2084.1259016655
0	6900	567367.049347702462	1689.6756709088
0	6907	568026.198308682117	1709.5691151917
0	6916	568791.974061587874	1914.5399692934
0	6925	569483.791468245957	1706.3697894104
0	6936	570810.313366586392	2350.691412203
0	6947	571618.206127965872	2265.1840242092
0	6952	572048.773074382965	1859.2966570985
0	6961	572594.636875251358	1707.0904787164
0	6966	573178.960637329196	1560.7545093633
0	6983	574535.839141393129	2057.5264686719
0	6988	575033.700583549265	1695.1369024348
0	6999	576188.593308487956	2368.9523905981
0	7006	576506.036172900398	1970.1970315073
0	7017	577537.169247726027	2106.896003522
0	7024	578022.569769853775	1813.3337580599
0	7033	578736.580608459237	2014.2542813905
0	7042	579794.203282613355	2190.168490028
0	7055	580947.262128163176	2448.8093595486
0	7064	581719.579652650329	2393.9956157003
0	7071	582308.630559034693	2106.1595808249
0	7078	582655.865814071196	1708.603685908
0	7087	583568.665265897336	1849.085613247
0	7100	584521.987546747598	2132.701240154
0	7107	585013.575865980285	1781.2225361355
0	7114	585457.923527900177	1811.2377127167
0	7123	586301.960486546206	1779.9729397986
0	7134	587220.794778456959	1880.7104929816
0	7143	587997.756329504821	2089.279541513
0	7150	588588.705861289102	2106.5047735814
0	7161	589640.002763131681	2275.7726510055
0	7168	589967.66863055532	1804.3496105354
0	7181	591336.064346786637	2481.2865180429
0	7190	592163.007486099426	2507.6483627781
0	7195	592571.403752826203	2021.5674554463
0	7204	593284.124768804807	1948.0604220182
0	7215	594253.25653804471	2090.2490519453
0	7226	595255.599863128786	2318.1735045277
0	7235	595983.974660513972	2163.5792850517
0	7240	596353.823976963808	1678.6452847067
0	7253	597645.782690495302	2390.1828273665
0	7260	598150.547466427137	2166.5728059132
0	7271	599336.435442511042	2479.4445450883
0	7280	600122.212372440895	2476.4296819456
0	7287	600832.226785831204	2375.0518532004
0	7298	601686.597408447465	2350.1619659364
0	7305	602434.786300314641	2312.5739278737
0	7312	602888.633986562541	2009.434831934
0	7321	603563.403144758245	1876.8057363108
0	7332	604402.944882167554	1871.5078397188
1	3185	260773.317522928142	352
1	3194	261492.790202982747	353
1	3203	262183.824590547034	354
1	3208	262576.766978809634	355
1	3221	263884.220836730698	356
1	3230	264709.236017894024	357
1	3235	265014.714289968858	358
1	3244	265398.591977125058	359
1	3253	266480.266527598749	360
1	3266	267629.668078618148	361
1	3271	267938.873745454499	362
1	3282	268900.539799081185	363
1	3285	269237.692574830749	364
1	3300	270510.276995133632	365
1	3311	271465.091782948026	366
1	3320	272044.979729549983	367
1	3325	272778.557116957405	368
1	3336	273216.729105915898	369
1	3343	274071.052757045278	370
1	3354	274752.542700106302	371
1	3365	275515.533410059311	372
1	3370	276029.163052747049	373
1	3383	277266.834559338191	374
1	3390	277952.737540472323	375
1	3399	278913.493868149841	376
1	3410	279653.461677627662	377
1	3419	280299.696244625399	378
1	3426	280838.686165306742	379
1	3437	281718.159668287287	380
1	3444	282187.557994527767	381
1	3451	282660.092864697824	382
1	3464	284291.620480874578	383
1	3473	284921.279402263487	384
1	3482	285580.084132310028	385
1	3487	285990.000237431402	386
1	3496	286355.654807668204	387
1	3505	287129.557908140149	388
1	3518	288325.953655550282	389
1	3525	289031.490820320349	390
1	3536	289636.260114004861	391
1	3541	290005.555638950344	392
1	3554	291208.109808946054	393
1	3559	291617.240687180336	394
1	3570	292628.751114942159	395
1	3581	293809.319354267816	396
1	3588	294456.199542945276	397
1	3599	295313.255710573892	398
1	3608	296093.309654854263	399
1	3615	296900.511114299322	400
1	3626	297676.746200630466	401
1	3631	298108.686424931536	402
1	3642	299239.460005704338	403
1	3649	299564.447904238503	404
1	3658	300265.755720483165	405
1	3667	300751.732469676088	406
1	3678	302091.370154405039	407
1	3685	302551.348315458771	408
1	3694	303113.887923583415	409
1	3707	304405.265945987803	410
1	3714	305146.376843377975	411
1	3721	305692.57477414797	412
1	3732	306789.374723704559	413
1	3739	307610.835667932433	414
1	3748	308046.694144047824	415
1	3757	308852.896640170392	416
1	3768	309858.564223442253	417
1	3779	310749.738560244468	418
1	3788	311372.193224122775	419
1	3795	312107.751844218028	420
1	3804	312658.09458098377	421
1	3813	313365.578445559395	422
1	3822	314018.903021095348	423
1	3829	314601.157771702883	424
1	3842	315583.80616167563	425
1	3849	316005.394561635358	426
1	3856	316328.0982165132	427
1	3865	317044.42813619974	428
1	3876	318168.0086297449	429
1	3883	318540.326843457324	430
1	3896	319524.191832449315	431
1	3901	319829.084779322175	432
1	3910	320644.426308665452	433
1	3921	321672.727233963115	434
1	3930	322199.735231464757	435
1	3937	322599.307926837383	436
1	3946	323671.809226088254	437
1	3959	324853.014153521536	438
1	3966	325497.216102713747	439
1	3975	326200.285920873313	440
1	3982	326739.835849497496	441
1	3993	327797.21635901372	442
1	4000	328192.040455201669	443
1	4009	329197.617494780599	444
1	4018	329675.861837714939	445
1	4029	330781.981981359451	446
1	4036	331149.997737072437	447
1	4049	332164.71330737698	448
1	4056	332912.19013785015	449
1	4065	333530.589400744095	450
1	4076	334614.005162240967	451
1	4085	335391.508797369927	452
1	4094	335803.84922591041	453
1	4103	336489.428059151426	454
1	4112	337086.457015620574	455
1	4117	337598.769197193935	456
1	4126	338391.508549824386	457
1	4139	339502.971517061844	458
1	4144	339904.122934956133	459
1	4149	340341.24040575701	460
1	4162	341435.999783640757	461
1	4171	342029.871569853306	462
1	4184	343081.538541941002	463
1	4191	343679.614292224899	464
1	4200	344376.604471821368	465
1	4207	344959.937233943523	466
1	4216	345606.621932191804	467
1	4225	346387.781446566835	468
1	4238	347311.876443307877	469
1	4243	347727.426583925292	470
1	4252	348563.307963078872	471
1	4261	349166.093463124737	472
1	4270	350027.976792817966	473
1	4279	350608.718121796877	474
1	4290	351927.787376800583	475
1	4299	352743.505360465528	476
1	4310	353758.787516970218	477
1	4319	354440.83237303424	478
1	4326	354841.430343361602	479
1	4333	355638.393747713448	480
1	4342	356302.297987975212	481
1	4355	357397.51363056715	482
1	4362	358066.296328743951	483
1	4373	358941.438414808394	484
1	4380	359569.091524137215	485
1	4387	360224.667890835585	486
1	4396	360821.658908855202	487
1	4407	361926.846086047621	488
1	4414	362324.97670124288	489
1	4425	363075.725923804598	490
1	4432	363623.371879337387	491
1	4443	364534.33681195605	492
1	4452	365312.943261768701	493
1	4463	366294.040522584723	494
1	4470	366799.161711428346	495
1	4479	367680.593701126086	496
1	4488	368592.139158351379	497
1	4499	369167.925232322919	498
1	4504	369859.647468337822	499
1	4517	370795.236299280109	500
1	4526	371347.998452000352	501
1	4533	371926.742884889277	502
1	4540	372530.221963394466	503
1	4549	373349.514578562263	504
1	4558	373836.537914956021	505
1	4569	374979.262540675732	506
1	4576	375601.661809813264	507
1	4585	376807.491273572702	508
1	4594	377204.632520210031	509
1	4607	378322.961500240523	510
1	4614	378688.650148222256	511
1	4621	379347.309927362982	512
1	4630	380045.313024194944	513
1	4643	381100.598767586085	514
1	4648	381401.211264682966	515
1	4661	382427.53243823539	516
1	4670	383325.746730901334	517
1	4675	383629.476074874434	518
1	4686	384718.466102471609	519
1	4693	385346.813546307419	520
1	4706	386319.300885312293	521
1	4713	386679.642047686536	522
1	4720	387184.118774207343	523
1	4729	388259.612614614923	524
1	4742	389164.637740608338	525
1	4747	389526.717753103036	526
1	4756	390428.348862240125	527
1	4769	391112.567603308742	528
1	4774	391518.105501774733	529
1	4787	392652.470366796513	530
1	4792	392961.653901636635	531
1	4803	393949.500484066118	532
1	4810	394428.107277955894	533
1	4823	395487.382606929203	534
1	4832	396362.736005662044	535
1	4839	397116.290622437408	536
1	4846	397644.260361883825	537
1	4855	398210.11531320404	538
1	4866	399509.253581240809	539
1	4873	400049.945163214615	540
1	4882	400655.451038992068	541
1	4893	401495.999229513144	542
1	4904	402586.11492379572	543
1	4911	403205.511834612151	544
1	4920	404296.902133058791	545
1	4927	404707.717373035883	546
1	4936	405253.544710949098	547
1	4945	406261.501163290848	548
1	4954	406729.713049996679	549
1	4967	407858.496200200206	550
1	4972	408339.520162716544	551
1	4981	408918.141172220966	552
1	4990	409706.284597562661	553
1	5003	410680.605582520402	554
1	5012	411268.421130906827	555
1	5021	412149.97181575749	556
1	5026	412543.01787964072	557
1	5035	413326.941898232363	558
1	5048	414589.604990696572	559
1	5055	415318.89227167707	560
1	5064	416126.040792139285	561
1	5071	416728.071807045528	562
1	5082	417648.742841044479	563
1	5089	418011.462337290906	564
1	5100	419143.985087703951	565
1	5107	419526.83218703609	566
1	5118	420552.584423683622	567
1	5127	421575.332762813234	568
1	5134	422148.374604759777	569
1	5143	423292.120991181621	570
1	5154	423800.861978950017	571
1	5165	424851.751517923588	572
1	5172	425276.974505977744	573
1	5179	425602.401462011078	574
1	5188	426606.784763513172	575
1	5197	427530.418108636552	576
1	5206	428393.510853499213	577
1	5217	429224.232021113897	578
1	5228	430506.084866495843	579
1	5233	431105.104543268721	580
1	5242	431857.490866491612	581
1	5251	432665.776230068918	582
1	5260	433297.665763087612	583
1	5269	433730.280652083498	584
1	5282	434763.537250924896	585
1	5289	435149.844695488032	586
1	5300	436347.470281412866	587
1	5307	437008.760748105165	588
1	5318	437845.197729952674	589
1	5327	438502.423900505569	590
1	5332	439028.021271899384	591
1	5341	439536.244202032726	592
1	5354	440739.318189024966	593
1	5361	441262.0194409043	594
1	5368	441895.668089250143	595
1	5379	442752.424127748277	596
1	5388	443340.582908224355	597
1	5397	443923.998714191881	598
1	5408	444768.143236404327	599
1	5413	445433.210929669482	600
1	5422	446266.295422241134	601
1	5431	446882.561746984762	602
1	5444	447546.437972411555	603
1	5453	448292.651012633038	604
1	5460	448990.687296073926	605
1	5467	449572.284028586042	606
1	5476	450029.53783865091	607
1	5485	451246.518572140528	608
1	5494	451700.806739693551	609
1	5503	452447.618699166967	610
1	5512	453352.267308672932	611
1	5521	453878.820019774181	612
1	5530	454636.019698670176	613
1	5543	455901.853016205175	614
1	5552	456493.222819967238	615
1	5557	456961.629014695106	616
1	5566	457804.700212972281	617
1	5579	458772.649390390186	618
1	5586	459456.405743630646	619
1	5593	460131.64067580369	620
1	5606	461074.87925961618	621
1	5615	461780.781028233512	622
1	5620	462415.472776209979	623
1	5629	462762.750069284855	624
1	5642	464322.97105584298	625
1	5647	464885.304648382633	626
1	5658	465741.496837372004	627
1	5667	466501.896149246066	628
1	5674	466806.081593781754	629
1	5685	467927.385305101096	630
1	5694	468585.408841772049	631
1	5701	469068.938229745298	632
1	5710	469775.367358513221	633
1	5719	470454.051126726016	634
1	5728	471335.20924081099	635
1	5737	472127.589179948016	636
1	5750	472774.68352876608	637
1	5759	473623.799366690262	638
1	5768	474433.427959028675	639
1	5775	475226.610126765488	640
1	5786	476153.160506486936	641
1	5791	476469.329063594385	642
1	5804	477874.575424008115	643
1	5813	478644.619854167147	644
1	5820	479309.977367520376	645
1	5831	480120.33292804849	646
1	5840	480895.102939568503	647
1	5845	481381.218780018432	648
1	5854	481847.163104731633	649
1	5863	482615.613026311664	650
1	5876	483774.70882837665	651
1	5885	484615.032181050672	652
1	5892	485331.254231371029	653
1	5899	485772.95151301664	654
1	5910	486579.520963551521	655
1	5919	487530.243922909766	656
1	5928	488319.066814100414	657
1	5935	488794.450426334559	658
1	5944	489975.245429948017	659
1	5953	490716.637615906119	660
1	5966	491612.705986853733	661
1	5975	492231.984085310295	662
1	5984	493118.567020352974	663
1	5989	493810.530861094638	664
1	5998	494386.784906219735	665
1	6011	495373.430268606216	666
1	6020	496259.123961254999	667
1	6029	497112.649782048583	668
1	6036	497550.352132832676	669
1	6047	498530.259069241628	670
1	6056	499298.264046991289	671
1	6061	499721.927134506449	672
1	6074	500496.550346352206	673
1	6083	501323.590703867422	674
1	6092	501990.875247074337	675
1	6099	502691.452451935084	676
1	6106	503393.510691169695	677
1	6117	504303.887718496891	678
1	6124	504815.648324741097	679
1	6133	505319.013890996621	680
1	6142	506299.669913481967	681
1	6151	507066.385555313947	682
1	6164	507974.756326479884	683
1	6173	508718.148928368511	684
1	6180	509548.373952554586	685
1	6187	509918.969625094953	686
1	6198	510852.279353980022	687
1	6207	511402.42853737441	688
1	6214	511845.785764139193	689
1	6223	512707.32538802554	690
1	6232	513461.193100595895	691
1	6241	514203.127518435988	692
1	6252	515085.899579152512	693
1	6263	515926.707215700346	694
1	6272	516585.639768373269	695
1	6279	517178.684940375436	696
1	6288	517727.997392742011	697
1	6297	518306.13775863317	698
1	6304	519165.618715295616	699
1	6317	520185.108261276084	700
1	6322	520579.067693185109	701
1	6331	521178.4464121331	702
1	6340	521649.350305600139	703
1	6349	522357.647530222358	704
1	6358	523378.835741803098	705
1	6367	523919.675202900591	706
1	6378	524649.262806493836	707
1	6389	525844.018343137625	708
1	6396	526407.283641351435	709
1	6405	526868.104111030746	710
1	6412	527273.767508938957	711
1	6423	528657.386247301522	712
1	6434	529422.439376777085	713
1	6443	530186.232345504733	714
1	6450	530635.251481365459	715
1	6461	531774.780354648876	716
1	6468	532375.819651829126	717
1	6475	533094.671580148909	718
1	6484	533734.914775891277	719
1	6497	534784.603038802791	720
1	6502	535374.890467012349	721
1	6513	536278.153665829498	722
1	6520	536712.022860813934	723
1	6533	537843.813619762707	724
1	6540	538406.014842633206	725
1	6551	539223.171961633537	726
1	6558	540038.028697902385	727
1	6567	540672.475303709556	728
1	6576	541260.765278572266	729
1	6583	541913.216607878034	730
1	6594	542365.578822931324	731
1	6601	543184.016860462774	732
1	6614	544292.779334541459	733
1	6621	545009.558752644856	734
1	6630	545431.890573352624	735
1	6637	546152.357971016366	736
1	6648	547349.706130335157	737
1	6659	548036.874313792263	738
1	6666	548613.565166015227	739
1	6673	549266.8866408058	740
1	6684	550052.07860120577	741
1	6691	551145.436447067235	742
1	6700	551561.319758277435	743
1	6709	551954.545014398221	744
1	6718	552920.580323645893	745
1	6727	553950.531723490034	746
1	6740	554752.985544595916	747
1	6747	555254.903204832275	748
1	6756	556063.967851130341	749
1	6765	556581.927616149236	750
1	6774	557359.569806093398	751
1	6781	557695.107915904421	752
1	6790	558624.878167407635	753
1	6801	559560.788108920727	754
1	6810	560296.00854506721	755
1	6819	561010.507240193013	756
1	6830	561766.054841782947	757
1	6839	562657.069709105466	758
1	6846	563084.073937917177	759
1	6857	564167.276288615588	760
1	6866	564789.684872841511	761
1	6873	565196.814687643249	762
1	6884	566316.629193490419	763
1	6891	566873.810774507049	764
1	6900	567367.049347702462	765
1	6907	568026.198308682117	766
1	6916	568791.974061587874	767
1	6925	569483.791468245957	768
1	6936	570810.313366586392	769
1	6947	571618.206127965872	770
1	6952	572048.773074382965	771
1	6961	572594.636875251358	772
1	6966	573178.960637329196	773
1	6983	574535.839141393129	774
1	6988	575033.700583549265	775
1	6999	576188.593308487956	776
1	7006	576506.036172900398	777
1	7017	577537.169247726027	778
1	7024	578022.569769853775	779
1	7033	578736.580608459237	780
1	7042	579794.203282613355	781
1	7055	580947.262128163176	782
1	7064	581719.579652650329	783
1	7071	582308.630559034693	784
1	7078	582655.865814071196	785
1	7087	583568.665265897336	786
1	7100	584521.987546747598	787
1	7107	585013.575865980285	788
1	7114	585457.923527900177	789
1	7123	586301.960486546206	790
1	7134	587220.794778456959	791
1	7143	587997.756329504821	792
1	7150	588588.705861289102	793
1	7161	589640.002763131681	794
1	7168	589967.66863055532	795
1	7181	591336.064346786637	796
1	7190	592163.007486099426	797
1	7195	592571.403752826203	798
1	7204	593284.124768804807	799
1	7215	594253.25653804471	800
1	7226	595255.599863128786	801
1	7235	595983.974660513972	802
1	7240	596353.823976963808	803
1	7253	597645.782690495302	804
1	7260	598150.547466427137	805
1	7271	599336.435442511042	806
1	7280	600122.212372440895	807
1	7287	600832.226785831204	808
1	7298	601686.597408447465	809
1	7305	602434.786300314641	810
1	7312	602888.633986562541	811
1	7321	603563.403144758245	812
1	7332	604402.944882167554	813

