version 2
run Pipelined_3Teachers-8-20190105-10:57:19-17008
attr configname Pipelined_3Teachers
attr datetime 20190105-10:57:19
attr experiment Pipelined_3Teachers
attr inifile ../simulations/omnetpp.ini
attr iterationvars "$0=\"uniform\""
attr iterationvarsf uniform-
attr measurement "$0=\"uniform\""
attr network PipelinedExamSession
attr processid 17008
attr repetition 8
attr replication #8
attr resultdir results
attr runnumber 8
attr seedset 8
param **.teachersNumber 3
param **.answerTimeDistribution "\"uniform\""
param **.minUniform 300
param **.maxUniform 900
param **.scaleLognormal 6.2854
param **.shapeLognormal 0.4724

vector 0 PipelinedExamSession examinationTime:vector ETV
attr source examFinished
vector 1 PipelinedExamSession studentID:vector ETV
attr source student
0	3167	260691.386760910992	2405.2142221481
0	3174	261240.430141054113	2258.6640533991
0	3181	261690.084694884737	1875.4320447799
0	3190	262335.507882060502	1644.1211211495
0	3201	263375.087547535097	1988.3003243711
0	3208	264268.910613935461	2081.4343524165
0	3219	264999.319903180023	2082.8345454298
0	3228	265642.319898912703	1876.543776691
0	3231	265951.88948479483	1423.7487803679
0	3244	267158.128019236048	2001.4969957061
0	3257	267996.291237417628	2007.7650129329
0	3266	268695.689225569387	1872.9751188308
0	3273	269453.575844736789	2186.5371257532
0	3284	270315.827590506543	2319.5363530889
0	3291	270896.629102667813	2200.9398770984
0	3302	271802.063197921981	2332.719323365
0	3309	272286.071481462588	1970.243890956
0	3316	272897.110729571452	1822.7582617197
0	3325	273594.227061839793	1792.1638639178
0	3336	274439.432456949745	1940.4451186303
0	3343	275140.91351344252	1917.6016837824
0	3356	276147.283397382144	2473.1763051823
0	3363	276600.783345429246	2157.6561997645
0	3372	277190.143294539322	1909.0253898874
0	3383	278092.940828204174	1945.657430822
0	3392	278885.998760489766	2160.8187171165
0	3401	279438.597120763753	2245.3865306452
0	3408	280099.013001658041	2006.0721734539
0	3419	280700.099230930228	1814.1004704405
0	3426	281301.825520908479	1863.2284001447
0	3433	282096.999429445733	1986.3721723203
0	3444	282755.903318664078	2055.8040877338
0	3453	283542.217941116561	2091.0493986681
0	3460	284057.933796336894	1793.1183685083
0	3469	284458.295145258327	1565.3041090351
0	3478	285126.23241241092	1480.2789038513
0	3487	285679.039475508054	1542.3804055899
0	3500	286894.422795949524	1861.2568493932
0	3507	287742.570395255482	2377.9141527135
0	3514	288371.72840628775	2243.6480709817
0	3523	288947.665967373198	2053.2431714237
0	3532	289652.906752796865	1864.8657908197
0	3541	290556.132033141351	1945.3806353733
0	3550	291485.191822377986	2130.4463221226
0	3563	292684.188900422326	2493.8300218899
0	3570	293204.486089479199	2213.4437933564
0	3579	293934.366941638312	2099.4831441902
0	3588	294687.548240879572	2003.3593404572
0	3595	295358.167945733316	2129.009912163
0	3606	296449.371218914188	2374.3408097886
0	3617	297118.940356280677	2275.2597997896
0	3624	297889.863459533103	2181.2410611659
0	3631	298370.037949970014	1873.9515619352
0	3642	299376.290285540767	2257.3499292601
0	3651	299955.581430438928	1985.9310062136
0	3660	300611.861466988943	1948.7112612929
0	3671	301314.181658299662	1779.8704687972
0	3678	302032.783855916954	1863.7188667897
0	3689	302876.285969233162	2146.6129910666
0	3696	303316.928325919456	2002.7466676198
0	3703	304326.6291565262	2293.7545651104
0	3716	305118.239962728717	2241.9539934956
0	3723	305707.022033678391	1946.8547982629
0	3732	306630.628655059287	2126.4803559054
0	3739	306977.982845250541	1859.7428825218
0	3748	307872.602633619704	1938.737861719
0	3759	309021.846920438134	2349.9635099899
0	3768	309718.105901498371	2219.2738641053
0	3777	310454.195441259095	2093.7517581973
0	3786	311073.577195778513	1866.7319538072
0	3793	311680.361562687928	1944.1742336378
0	3802	312356.433496903652	1863.8148610946
0	3811	312986.86067895035	1705.1793634426
0	3820	313784.647158253963	1949.7069651727
0	3829	314322.851474164079	1737.7711427864
0	3840	315106.321836356098	1643.265008647
0	3847	315461.774570960576	1182.9769330099
0	3856	316005.636835377688	1242.4232054036
0	3869	317045.723997987832	1809.9016014487
0	3874	317615.66582769158	1795.2198228333
0	3887	318691.188709856968	2203.5227746703
0	3892	319078.135430859428	2032.4114328716
0	3903	319965.290579432647	2033.0762513448
0	3910	320584.8897029646	1893.7009931076
0	3921	321656.915773870449	2279.2803232558
0	3930	322331.899084104251	2057.1361913346
0	3939	322896.10024890865	1924.7306317091
0	3950	323696.061812806901	2026.1607330758
0	3957	324335.777223017093	1943.8671739306
0	3966	325108.216113271219	2206.1553542968
0	3977	325963.516249973354	2267.4544371665
0	3984	326667.345100175616	2263.3821611758
0	3993	327381.058316957233	2257.0095964707
0	4002	328020.022788271335	2056.506538298
0	4009	328666.70343247245	1891.2048011553
0	4022	329310.91856639835	1919.0376039594
0	4031	329970.842075021965	1806.5088797361
0	4040	330673.947921814425	1840.703609772
0	4047	331389.300741115613	2078.3821747173
0	4058	332175.844861334218	2205.0027863123
0	4065	332856.071957526757	2182.1240357123
0	4072	333190.159044647618	1741.5007716045
0	4083	334022.905986523284	1847.0611251891
0	4094	334941.348990937724	2041.8117248453
0	4101	335552.262436179473	1986.9284307584
0	4108	336163.373941741913	2067.3976491205
0	4117	336809.848196804553	1868.4992058668
0	4126	337712.665107054665	1930.4671827704
0	4135	338223.496371461108	1559.9495562259
0	4144	339229.294617846638	2031.3730054535
0	4157	340306.478597223788	2237.4718830921
0	4166	341131.529624573916	2425.9699895047
0	4171	341458.687743824005	1866.3683289662
0	4184	342419.076926959708	2112.5983297359
0	4189	342721.207241015538	1589.6776164416
0	4200	343813.890425255552	2090.3069252148
0	4211	344668.351262994141	2249.2743360344
0	4220	345537.788020726324	2315.976997884
0	4227	346220.835960935832	2389.0830676071
0	4236	346712.866865610735	2044.5156026166
0	4243	347408.745686989309	1870.957666263
0	4254	348044.611220480906	1681.8957526702
0	4263	348621.390073886173	1588.6817667168
0	4274	349688.035927573251	2180.5986765772
0	4281	350419.316126173394	2339.6448588464
0	4290	350901.571173593434	2043.3488998096
0	4297	351496.913498081299	1808.877570508
0	4308	352479.15956117216	2028.4158996306
0	4317	353209.039777005123	2124.8017315753
0	4326	354027.604130376162	2195.5378287937
0	4337	354888.017759704994	2330.8302052785
0	4342	355504.581115348296	2165.3751905076
0	4353	356518.890020158174	2419.7327224072
0	4360	357125.334692979264	2237.3169332743
0	4369	357597.173094609784	1963.4114040993
0	4378	358183.478223206507	1653.7337624934
0	4387	359084.883932909029	1807.7883433085
0	4396	359782.492701010811	2005.9501596261
0	4407	360505.06844907071	1838.3018952794
0	4414	360917.838220624286	1357.3151545599
0	4427	362209.444990614461	2255.1573758014
0	4436	363072.044384200158	2457.5198519044
0	4445	363943.460472626644	2513.3129507303
0	4454	364728.437594231251	2518.9926036168
0	4463	365517.763139633495	2445.7187554333
0	4468	365895.354508655179	1951.8940360285
0	4477	366792.214517807621	2063.7769235764
0	4486	367747.125669289414	2229.3625296559
0	4499	368651.292113587293	2291.4505657274
0	4504	369145.941112563047	1886.1814832781
0	4517	369962.797264801371	1846.5012982953
0	4524	370451.374307088587	1800.0821935013
0	4531	370953.284931136328	1719.0272315405
0	4540	371612.716780928927	1649.9195161276
0	4551	372705.748032638836	2178.3255748451
0	4558	373328.731998195904	1922.92577466
0	4569	374133.28049979176	1857.3378571775
0	4580	375128.665184648741	2142.216282757
0	4587	375705.993027566034	1962.627114309
0	4596	376750.675370497663	2243.3827668428
0	4607	377564.095296571064	2435.4301119223
0	4612	377885.249383840743	1862.5301585533
0	4625	378770.65328601751	1939.8291648366
0	4634	379411.83544113304	1847.740144562
0	4643	380287.795562529969	2330.3877943195
0	4648	380936.521861748803	2165.8685757313
0	4657	381352.355659101191	1940.5202179682
0	4670	382441.946395486627	2154.1508329567
0	4675	382780.293505545739	1615.981684858
0	4684	383787.125764042173	1984.1892503668
0	4695	384807.814061455462	2365.8676659688
0	4704	385601.829530485008	2266.8280221988
0	4713	386426.166913239319	2387.7364806365
0	4722	387103.202254883979	2247.5067284424
0	4733	387631.292034080286	1967.4961657729
0	4742	388323.365201242302	1870.3283526935
0	4747	388780.687418393825	1617.7428837866
0	4760	389497.679409803856	1866.3873757236
0	4765	389832.487688306752	1509.1224870645
0	4778	390959.570262394879	1960.7660044916
0	4783	391607.758061355013	2110.0786515512
0	4794	392402.949220268089	2064.154602075
0	4803	393104.831206658889	2145.260944264
0	4812	393566.202373662997	1867.4978243653
0	4819	394084.415457816828	1522.5538074039
0	4830	395475.550911482457	2329.3850792572
0	4837	395927.467823959921	2111.8626920041
0	4848	396714.356962591444	2014.0440332238
0	4857	397555.548943765496	2059.3053545337
0	4868	398249.672238389065	2032.4719801079
0	4877	398969.090139912476	2197.5267828908
0	4884	399620.593838486855	1987.2268241365
0	4891	400146.651368262281	1896.9791298732
0	4902	401062.199312914197	2093.1091730017
0	4913	401804.923973372241	2121.2022830732
0	4922	402573.105503059959	2193.4825366829
0	4931	403373.087770957535	2149.7730191331
0	4940	403882.965762075072	2078.0417887028
0	4945	404401.523492066225	1828.4179890063
0	4954	404990.356936678326	1617.2691657208
0	4967	406175.264287926292	2292.2985258512
0	4976	406711.996726971155	2190.4594838619
0	4983	407073.054760415142	1739.0172416344
0	4992	407861.45992968235	1686.1956417561
0	4999	408663.135754549911	1951.1390275788
0	5010	409419.016330037301	1959.1686160304
0	5019	410265.7716836315	2124.4700307492
0	5028	411079.314262792503	2352.1621663123
0	5039	411830.807791929727	2340.1372052729
0	5048	412709.567536739668	2389.614587836
0	5057	413570.006140647492	2415.0682388339
0	5064	414410.483284201509	2579.6754922718
0	5075	415289.915990782938	2580.3484540433
0	5080	415778.036809572986	2208.0306689255
0	5093	416840.703182620964	2389.6415728144
0	5100	417500.865071313492	2210.9490805306
0	5111	418362.417585309631	2176.1708994862
0	5118	418737.194079346991	1896.490896726
0	5129	419897.828913526646	2285.5786154978
0	5136	420338.320191716812	1975.9026064072
0	5145	420920.806000521443	1785.4935737327
0	5156	421954.15642331358	2056.3275097869
0	5161	422345.283384108953	1949.5296416804
0	5170	422970.234347227998	1763.0864422303
0	5183	424079.326734691895	2125.1703113783
0	5192	424940.034521324597	2350.8447071537
0	5201	425743.45924328085	2283.6771412287
0	5206	426145.949747180603	2066.6230124887
0	5215	426959.787332313173	2019.7528109886
0	5228	427847.018515924029	2103.5592726432
0	5235	428414.874450350218	1786.9987778831
0	5242	428979.948735237159	1951.8902360927
0	5251	429798.094780230932	1951.0762643069
0	5262	430673.984460393004	1992.7521956619
0	5269	431013.046215428077	1527.5387639645
0	5278	432161.236672103442	2077.3461448029
0	5291	433099.943085154556	2128.3651412465
0	5298	433755.416534654834	1976.5961078927
0	5305	434225.865690317042	1835.4749653023
0	5314	435053.021708456837	1953.0786233023
0	5325	436255.505197355562	2355.3915465251
0	5332	436727.499383781144	2017.8020935971
0	5341	437190.285102278032	1595.1543012634
0	5350	438125.199002679475	1663.0263507832
0	5359	438793.762074876615	1875.6983995903
0	5370	439607.02029392127	1803.7183252629
0	5379	440640.423156134823	2314.8635000456
0	5386	441212.943996861616	2039.841039665
0	5399	442341.497645527163	2270.0361155905
0	5406	443221.657996159086	2347.3050558474
0	5415	443947.453724127302	2420.8831951953
0	5424	444769.570860452989	2428.0732149258
0	5433	445342.404972296247	2117.0965732075
0	5442	446226.673378050366	2159.0883409604
0	5449	446894.180308654943	2011.0654722434
0	5462	447646.948343049773	2116.942236945
0	5469	448344.82402782891	2063.588690199
0	5476	448737.251154519655	1614.9982193951
0	5489	449770.144526660481	2123.1961836107
0	5498	450458.135803369844	1943.9301932696
0	5505	450951.870551984796	1911.8937090039
0	5516	451843.066560756454	2072.922034096
0	5523	452718.310903105924	2260.1750997361
0	5532	453180.159065639639	1919.6532371454
0	5539	453981.59943781797	2138.5328770615
0	5550	455163.41146454219	2429.2272764258
0	5557	455733.528564171905	2120.4746997915
0	5566	456475.692352512891	2106.1086903792
0	5575	457101.665512612129	1915.7776218373
0	5584	457820.073312381321	1794.3746833596
0	5597	458835.69163349461	1981.3665408175
0	5604	459237.243921635712	1578.6017402541
0	5613	460049.665352236519	1994.9012751225
0	5624	460751.274327049071	1915.5826935545
0	5633	461531.683548912445	1891.5560019203
0	5640	461946.397639252284	1726.0294360109
0	5647	463160.886475537012	2409.6121484879
0	5660	463926.804392365778	2395.1208434533
0	5669	464809.493079548741	2393.2267243043
0	5676	465176.163715822662	1918.6345045455
0	5683	466280.559294624294	2353.7549022585
0	5696	467188.364571332972	2378.8714917842
0	5703	467667.276464682113	2062.9728469066
0	5714	468577.615594072308	2131.1266212724
0	5723	469471.077808365266	2282.7132370323
0	5732	470331.794515997212	2593.9382916782
0	5737	470670.681370608549	2093.0657765362
0	5746	471421.873536100652	1950.7957277354
0	5755	472053.780031576793	1721.9855155796
0	5766	472842.174116196151	1721.3341189083
0	5773	473300.728602753993	1668.8243621495
0	5782	474244.976971484762	1944.8987395037
0	5795	475067.423191946041	2121.6166694183
0	5804	475914.138700347435	2164.9118507747
0	5813	476771.532839303878	2247.2278764937
0	5822	477610.879352549133	2543.4561606031
0	5829	478409.257870679763	2495.1191703323
0	5838	479185.515798814637	2413.9829595108
0	5847	479818.577725673137	2207.698373124
0	5858	480680.885805236218	2178.8194716442
0	5863	481097.737979795826	1880.8145798743
0	5872	481610.92368573886	1753.8837712258
0	5885	482566.054635308725	1885.1688300725
0	5892	483087.401738902596	1787.559217494
0	5899	483530.379871046213	1832.8657479957
0	5904	484164.874972729054	1598.8203374203
0	5917	485344.028040161398	1970.2967123128
0	5930	486677.041908167345	2466.8248008471
0	5937	487373.810153128622	2390.5103348661
0	5944	487840.04007149492	2001.9650157541
0	5955	488851.808954682244	2174.7670465149
0	5964	489752.740291273264	2270.178352017
0	5975	490767.238603765187	2573.4979764093
0	5980	491098.672837810633	2053.9044681005
0	5991	491833.765056822491	1927.79955226
0	5998	492255.386998923537	1488.1483951584
0	6007	493018.673470336986	1562.063800497
0	6018	493709.914642386181	1791.2633657455
0	6027	494469.308767374647	2064.1164926346
0	6038	495586.676229955671	2376.7000621185
0	6045	496048.440371733201	2001.1445609853
0	6054	497139.065355621321	2398.7252867315
0	6061	497871.780484076633	2285.104254121
0	6072	498712.243059044748	2304.0128713008
0	6079	499079.077317193195	1826.6109991819
0	6092	500276.05558438231	2213.2721424568
0	6099	500838.524774881124	1995.2066898812
0	6106	501243.782840715765	1824.6977004223
0	6115	501907.419665716633	1631.3640813343
0	6124	502376.16409552288	1523.8654749468
0	6135	503747.549496917098	2216.394668771
0	6144	504527.910255454525	2215.1406118646
0	6151	505024.581465963319	1999.9424784444
0	6162	505754.195123445287	1898.3176959213
0	6171	506635.002152714923	2049.4136328343
0	6180	507257.89891337049	2169.0000015311
0	6187	507613.470485340849	1808.8076876476
0	6200	508644.245608896061	1993.5183472931
0	6205	509000.790377939164	1705.2157460712
0	6216	509959.162098867863	2022.8793379851
0	6227	510764.779319800481	2120.5337109044
0	6232	511133.686486445412	1947.8760406841
0	6241	511840.229841833978	1846.068875771
0	6250	512575.888985116079	1811.1096653156
0	6261	513631.315131112978	2178.140271781
0	6268	514174.300769716546	1978.442200413
0	6281	515291.815538518177	2390.2484108694
0	6286	515765.223732031928	1997.5559541956
0	6297	516271.534329978795	1646.9790324569
0	6304	516836.261670850263	1544.4461323321
0	6313	517482.066886453004	1601.9555859268
0	6324	518474.171608686494	1880.1142211538
0	6331	518907.403516396927	1671.7941882089
0	6340	519724.168369593146	1732.692793943
0	6349	521123.51721357559	2340.0126826018
0	6358	521573.086951626513	1933.6276086979
0	6369	522536.84611553331	2029.7676759772
0	6380	523357.668098202023	2041.1442368757
0	6387	524156.173104420352	2310.7633248903
0	6394	524656.957967346582	2042.4250921234
0	6403	525046.016512624967	1688.3484144229
0	6416	526261.093664076227	2074.2139826529
0	6421	526697.624630481052	1934.631790733
0	6430	527730.719500081662	2187.0118232444
0	6439	528473.491335846532	2212.3976717703
0	6450	529142.667224351364	2016.9603907038
0	6461	530001.972664659891	2146.7131567653
0	6468	530411.867082444999	1905.2300486248
0	6477	531047.131808660973	1853.2126002945
0	6488	531679.073029803161	1677.1003651433
0	6495	532188.26850936753	1727.5054152589
0	6502	532867.409936199014	1768.1997733656
0	6507	533327.933409344454	1648.8603795413
0	6520	534367.024026671474	1810.2342263795
0	6529	535132.501448784072	1711.704684142
0	6542	536240.763110574384	2339.3543940503
0	6551	537039.783988706817	2242.4194795545
0	6560	537743.60136128967	2118.1525137741
0	6567	538573.602446448108	2332.8393358737
0	6574	539099.047885509257	2059.2638968024
0	6587	540014.43966133525	2270.8383000456
0	6596	540808.516774652576	2173.3325824142
0	6601	541560.501081543094	2296.8106574379
0	6610	542061.999590322425	2047.5599289872
0	6621	543335.295176832055	2526.7784021795
0	6630	543931.257985951429	2246.5596468654
0	6641	544566.659519635191	1992.4113394227
0	6646	544926.871006423658	1511.5392420441
0	6655	545814.038870343988	1870.0535630342
0	6664	546574.805190553939	2008.1456709187
0	6673	547426.579748326963	2121.5779901482
0	6682	548189.352289354479	1988.306435477
0	6693	549026.417217264002	2048.7569978926
0	6700	549642.894561868211	1771.2112070527
0	6709	550407.090425351684	1815.3045137879
0	6718	551152.055719681134	2044.1573685966
0	6727	551960.713746165906	2098.0302640703
0	6738	552877.880838839386	2167.5876818597
0	6745	553276.628623902847	1702.6079443283
0	6758	554164.310579141651	2067.2012034338
0	6767	554894.014904089321	1945.9804174025
0	6772	555507.684271037628	2003.0416889582
0	6781	556082.398946676453	1918.0883675348
0	6794	557334.695363324185	2440.6804592349
0	6799	557864.086022693713	2180.3472798318
0	6808	558368.257582001438	1795.446758531
0	6821	559621.203674236362	2286.5083109122
0	6828	560087.648505019074	2119.5113147143
0	6839	560879.303841339474	2088.3646748029
0	6844	561463.466357113843	1842.2626828775
0	6857	562545.671238564005	2337.0148038492
0	6862	562915.781722404113	2036.4778810646
0	6871	563491.113334754533	1795.797037147
0	6880	564344.596540136313	1798.9253015723
0	6889	564754.200792918031	1502.9063172173
0	6902	565974.133005738308	2331.982122967
0	6911	566859.370591677775	2376.1970699765
0	6916	567386.863382253846	2290.4043888208
0	6925	567883.019284950619	1908.8862792123
0	6934	568690.918025281331	1831.5474336036
0	6943	569702.497944468682	2061.5865946747
0	6952	570596.114619495398	2087.1947872918
0	6961	571086.017776373824	1699.7296045069
0	6970	572142.995521193421	1904.418697441
0	6979	572975.242548063448	1937.6129915938
0	6990	573960.243880888498	2064.9000181351
0	6999	574764.80464632628	2262.4376809224
0	7008	575571.771294996193	2225.4872513004
0	7019	576290.831139637208	2313.2091587875
0	7028	577169.030496524698	2294.1864228342
0	7035	577825.461919186688	2145.1934140641
0	7042	578500.326779158837	2209.4956395216
0	7053	579520.81149481242	2351.7809982877
0	7060	580021.030679298615	2008.4577293135
0	7071	580839.078047918207	1987.146812724
0	7078	581316.924069821886	1727.401517937
0	7087	582370.22847379563	1894.4291048683
0	7098	583077.997367084078	1894.0934799146
0	7105	583386.575985839642	1593.0584460497
0	7114	584545.028932113252	1927.4198315106
0	7125	585291.712188581056	1944.7319235653
0	7134	586006.636503059468	1896.9314019196
0	7143	586698.791097616828	1876.5490849502
0	7154	587481.414398085377	2067.2264405061
0	7163	588349.900833517364	2269.153302256
0	7170	589040.175904752738	2328.9754271507
0	7181	589912.583170691556	2431.1687726062
0	7186	590258.70473412802	1908.8039006107
0	7195	590824.106555711529	1673.5012026038
0	7206	591969.26207500515	2056.6789043136
0	7215	592318.58470235025	1933.4356737323
0	7222	593009.206775017134	1821.8316625804
0	7235	593861.688977479986	1882.0753791835
0	7242	594579.108974849857	1902.9903183226
0	7251	595078.045197995431	1905.9732845519
0	7258	595801.296383421919	1939.6074059419
0	7271	596835.16092002397	2199.9747636728
0	7280	597588.929779222287	2104.2436335236
0	7287	598192.574526043661	1919.9453603011
0	7294	598746.831479854934	1911.670559831
0	7303	599579.111586883716	1990.1818076614
0	7312	600419.627567566984	1991.076809261
0	7323	601284.053561277741	2015.1992593892
0	7330	602096.366357384303	2213.9468258712
0	7339	602693.914837762766	1957.873114245
0	7352	603880.38541688589	2490.8963359427
0	7359	604528.294738568418	2242.6975438837
1	3167	260691.386760910992	350
1	3174	261240.430141054113	351
1	3181	261690.084694884737	352
1	3190	262335.507882060502	353
1	3201	263375.087547535097	354
1	3208	264268.910613935461	355
1	3219	264999.319903180023	356
1	3228	265642.319898912703	357
1	3231	265951.88948479483	358
1	3244	267158.128019236048	359
1	3257	267996.291237417628	360
1	3266	268695.689225569387	361
1	3273	269453.575844736789	362
1	3284	270315.827590506543	363
1	3291	270896.629102667813	364
1	3302	271802.063197921981	365
1	3309	272286.071481462588	366
1	3316	272897.110729571452	367
1	3325	273594.227061839793	368
1	3336	274439.432456949745	369
1	3343	275140.91351344252	370
1	3356	276147.283397382144	371
1	3363	276600.783345429246	372
1	3372	277190.143294539322	373
1	3383	278092.940828204174	374
1	3392	278885.998760489766	375
1	3401	279438.597120763753	376
1	3408	280099.013001658041	377
1	3419	280700.099230930228	378
1	3426	281301.825520908479	379
1	3433	282096.999429445733	380
1	3444	282755.903318664078	381
1	3453	283542.217941116561	382
1	3460	284057.933796336894	383
1	3469	284458.295145258327	384
1	3478	285126.23241241092	385
1	3487	285679.039475508054	386
1	3500	286894.422795949524	387
1	3507	287742.570395255482	388
1	3514	288371.72840628775	389
1	3523	288947.665967373198	390
1	3532	289652.906752796865	391
1	3541	290556.132033141351	392
1	3550	291485.191822377986	393
1	3563	292684.188900422326	394
1	3570	293204.486089479199	395
1	3579	293934.366941638312	396
1	3588	294687.548240879572	397
1	3595	295358.167945733316	398
1	3606	296449.371218914188	399
1	3617	297118.940356280677	400
1	3624	297889.863459533103	401
1	3631	298370.037949970014	402
1	3642	299376.290285540767	403
1	3651	299955.581430438928	404
1	3660	300611.861466988943	405
1	3671	301314.181658299662	406
1	3678	302032.783855916954	407
1	3689	302876.285969233162	408
1	3696	303316.928325919456	409
1	3703	304326.6291565262	410
1	3716	305118.239962728717	411
1	3723	305707.022033678391	412
1	3732	306630.628655059287	413
1	3739	306977.982845250541	414
1	3748	307872.602633619704	415
1	3759	309021.846920438134	416
1	3768	309718.105901498371	417
1	3777	310454.195441259095	418
1	3786	311073.577195778513	419
1	3793	311680.361562687928	420
1	3802	312356.433496903652	421
1	3811	312986.86067895035	422
1	3820	313784.647158253963	423
1	3829	314322.851474164079	424
1	3840	315106.321836356098	425
1	3847	315461.774570960576	426
1	3856	316005.636835377688	427
1	3869	317045.723997987832	428
1	3874	317615.66582769158	429
1	3887	318691.188709856968	430
1	3892	319078.135430859428	431
1	3903	319965.290579432647	432
1	3910	320584.8897029646	433
1	3921	321656.915773870449	434
1	3930	322331.899084104251	435
1	3939	322896.10024890865	436
1	3950	323696.061812806901	437
1	3957	324335.777223017093	438
1	3966	325108.216113271219	439
1	3977	325963.516249973354	440
1	3984	326667.345100175616	441
1	3993	327381.058316957233	442
1	4002	328020.022788271335	443
1	4009	328666.70343247245	444
1	4022	329310.91856639835	445
1	4031	329970.842075021965	446
1	4040	330673.947921814425	447
1	4047	331389.300741115613	448
1	4058	332175.844861334218	449
1	4065	332856.071957526757	450
1	4072	333190.159044647618	451
1	4083	334022.905986523284	452
1	4094	334941.348990937724	453
1	4101	335552.262436179473	454
1	4108	336163.373941741913	455
1	4117	336809.848196804553	456
1	4126	337712.665107054665	457
1	4135	338223.496371461108	458
1	4144	339229.294617846638	459
1	4157	340306.478597223788	460
1	4166	341131.529624573916	461
1	4171	341458.687743824005	462
1	4184	342419.076926959708	463
1	4189	342721.207241015538	464
1	4200	343813.890425255552	465
1	4211	344668.351262994141	466
1	4220	345537.788020726324	467
1	4227	346220.835960935832	468
1	4236	346712.866865610735	469
1	4243	347408.745686989309	470
1	4254	348044.611220480906	471
1	4263	348621.390073886173	472
1	4274	349688.035927573251	473
1	4281	350419.316126173394	474
1	4290	350901.571173593434	475
1	4297	351496.913498081299	476
1	4308	352479.15956117216	477
1	4317	353209.039777005123	478
1	4326	354027.604130376162	479
1	4337	354888.017759704994	480
1	4342	355504.581115348296	481
1	4353	356518.890020158174	482
1	4360	357125.334692979264	483
1	4369	357597.173094609784	484
1	4378	358183.478223206507	485
1	4387	359084.883932909029	486
1	4396	359782.492701010811	487
1	4407	360505.06844907071	488
1	4414	360917.838220624286	489
1	4427	362209.444990614461	490
1	4436	363072.044384200158	491
1	4445	363943.460472626644	492
1	4454	364728.437594231251	493
1	4463	365517.763139633495	494
1	4468	365895.354508655179	495
1	4477	366792.214517807621	496
1	4486	367747.125669289414	497
1	4499	368651.292113587293	498
1	4504	369145.941112563047	499
1	4517	369962.797264801371	500
1	4524	370451.374307088587	501
1	4531	370953.284931136328	502
1	4540	371612.716780928927	503
1	4551	372705.748032638836	504
1	4558	373328.731998195904	505
1	4569	374133.28049979176	506
1	4580	375128.665184648741	507
1	4587	375705.993027566034	508
1	4596	376750.675370497663	509
1	4607	377564.095296571064	510
1	4612	377885.249383840743	511
1	4625	378770.65328601751	512
1	4634	379411.83544113304	513
1	4643	380287.795562529969	514
1	4648	380936.521861748803	515
1	4657	381352.355659101191	516
1	4670	382441.946395486627	517
1	4675	382780.293505545739	518
1	4684	383787.125764042173	519
1	4695	384807.814061455462	520
1	4704	385601.829530485008	521
1	4713	386426.166913239319	522
1	4722	387103.202254883979	523
1	4733	387631.292034080286	524
1	4742	388323.365201242302	525
1	4747	388780.687418393825	526
1	4760	389497.679409803856	527
1	4765	389832.487688306752	528
1	4778	390959.570262394879	529
1	4783	391607.758061355013	530
1	4794	392402.949220268089	531
1	4803	393104.831206658889	532
1	4812	393566.202373662997	533
1	4819	394084.415457816828	534
1	4830	395475.550911482457	535
1	4837	395927.467823959921	536
1	4848	396714.356962591444	537
1	4857	397555.548943765496	538
1	4868	398249.672238389065	539
1	4877	398969.090139912476	540
1	4884	399620.593838486855	541
1	4891	400146.651368262281	542
1	4902	401062.199312914197	543
1	4913	401804.923973372241	544
1	4922	402573.105503059959	545
1	4931	403373.087770957535	546
1	4940	403882.965762075072	547
1	4945	404401.523492066225	548
1	4954	404990.356936678326	549
1	4967	406175.264287926292	550
1	4976	406711.996726971155	551
1	4983	407073.054760415142	552
1	4992	407861.45992968235	553
1	4999	408663.135754549911	554
1	5010	409419.016330037301	555
1	5019	410265.7716836315	556
1	5028	411079.314262792503	557
1	5039	411830.807791929727	558
1	5048	412709.567536739668	559
1	5057	413570.006140647492	560
1	5064	414410.483284201509	561
1	5075	415289.915990782938	562
1	5080	415778.036809572986	563
1	5093	416840.703182620964	564
1	5100	417500.865071313492	565
1	5111	418362.417585309631	566
1	5118	418737.194079346991	567
1	5129	419897.828913526646	568
1	5136	420338.320191716812	569
1	5145	420920.806000521443	570
1	5156	421954.15642331358	571
1	5161	422345.283384108953	572
1	5170	422970.234347227998	573
1	5183	424079.326734691895	574
1	5192	424940.034521324597	575
1	5201	425743.45924328085	576
1	5206	426145.949747180603	577
1	5215	426959.787332313173	578
1	5228	427847.018515924029	579
1	5235	428414.874450350218	580
1	5242	428979.948735237159	581
1	5251	429798.094780230932	582
1	5262	430673.984460393004	583
1	5269	431013.046215428077	584
1	5278	432161.236672103442	585
1	5291	433099.943085154556	586
1	5298	433755.416534654834	587
1	5305	434225.865690317042	588
1	5314	435053.021708456837	589
1	5325	436255.505197355562	590
1	5332	436727.499383781144	591
1	5341	437190.285102278032	592
1	5350	438125.199002679475	593
1	5359	438793.762074876615	594
1	5370	439607.02029392127	595
1	5379	440640.423156134823	596
1	5386	441212.943996861616	597
1	5399	442341.497645527163	598
1	5406	443221.657996159086	599
1	5415	443947.453724127302	600
1	5424	444769.570860452989	601
1	5433	445342.404972296247	602
1	5442	446226.673378050366	603
1	5449	446894.180308654943	604
1	5462	447646.948343049773	605
1	5469	448344.82402782891	606
1	5476	448737.251154519655	607
1	5489	449770.144526660481	608
1	5498	450458.135803369844	609
1	5505	450951.870551984796	610
1	5516	451843.066560756454	611
1	5523	452718.310903105924	612
1	5532	453180.159065639639	613
1	5539	453981.59943781797	614
1	5550	455163.41146454219	615
1	5557	455733.528564171905	616
1	5566	456475.692352512891	617
1	5575	457101.665512612129	618
1	5584	457820.073312381321	619
1	5597	458835.69163349461	620
1	5604	459237.243921635712	621
1	5613	460049.665352236519	622
1	5624	460751.274327049071	623
1	5633	461531.683548912445	624
1	5640	461946.397639252284	625
1	5647	463160.886475537012	626
1	5660	463926.804392365778	627
1	5669	464809.493079548741	628
1	5676	465176.163715822662	629
1	5683	466280.559294624294	630
1	5696	467188.364571332972	631
1	5703	467667.276464682113	632
1	5714	468577.615594072308	633
1	5723	469471.077808365266	634
1	5732	470331.794515997212	635
1	5737	470670.681370608549	636
1	5746	471421.873536100652	637
1	5755	472053.780031576793	638
1	5766	472842.174116196151	639
1	5773	473300.728602753993	640
1	5782	474244.976971484762	641
1	5795	475067.423191946041	642
1	5804	475914.138700347435	643
1	5813	476771.532839303878	644
1	5822	477610.879352549133	645
1	5829	478409.257870679763	646
1	5838	479185.515798814637	647
1	5847	479818.577725673137	648
1	5858	480680.885805236218	649
1	5863	481097.737979795826	650
1	5872	481610.92368573886	651
1	5885	482566.054635308725	652
1	5892	483087.401738902596	653
1	5899	483530.379871046213	654
1	5904	484164.874972729054	655
1	5917	485344.028040161398	656
1	5930	486677.041908167345	657
1	5937	487373.810153128622	658
1	5944	487840.04007149492	659
1	5955	488851.808954682244	660
1	5964	489752.740291273264	661
1	5975	490767.238603765187	662
1	5980	491098.672837810633	663
1	5991	491833.765056822491	664
1	5998	492255.386998923537	665
1	6007	493018.673470336986	666
1	6018	493709.914642386181	667
1	6027	494469.308767374647	668
1	6038	495586.676229955671	669
1	6045	496048.440371733201	670
1	6054	497139.065355621321	671
1	6061	497871.780484076633	672
1	6072	498712.243059044748	673
1	6079	499079.077317193195	674
1	6092	500276.05558438231	675
1	6099	500838.524774881124	676
1	6106	501243.782840715765	677
1	6115	501907.419665716633	678
1	6124	502376.16409552288	679
1	6135	503747.549496917098	680
1	6144	504527.910255454525	681
1	6151	505024.581465963319	682
1	6162	505754.195123445287	683
1	6171	506635.002152714923	684
1	6180	507257.89891337049	685
1	6187	507613.470485340849	686
1	6200	508644.245608896061	687
1	6205	509000.790377939164	688
1	6216	509959.162098867863	689
1	6227	510764.779319800481	690
1	6232	511133.686486445412	691
1	6241	511840.229841833978	692
1	6250	512575.888985116079	693
1	6261	513631.315131112978	694
1	6268	514174.300769716546	695
1	6281	515291.815538518177	696
1	6286	515765.223732031928	697
1	6297	516271.534329978795	698
1	6304	516836.261670850263	699
1	6313	517482.066886453004	700
1	6324	518474.171608686494	701
1	6331	518907.403516396927	702
1	6340	519724.168369593146	703
1	6349	521123.51721357559	704
1	6358	521573.086951626513	705
1	6369	522536.84611553331	706
1	6380	523357.668098202023	707
1	6387	524156.173104420352	708
1	6394	524656.957967346582	709
1	6403	525046.016512624967	710
1	6416	526261.093664076227	711
1	6421	526697.624630481052	712
1	6430	527730.719500081662	713
1	6439	528473.491335846532	714
1	6450	529142.667224351364	715
1	6461	530001.972664659891	716
1	6468	530411.867082444999	717
1	6477	531047.131808660973	718
1	6488	531679.073029803161	719
1	6495	532188.26850936753	720
1	6502	532867.409936199014	721
1	6507	533327.933409344454	722
1	6520	534367.024026671474	723
1	6529	535132.501448784072	724
1	6542	536240.763110574384	725
1	6551	537039.783988706817	726
1	6560	537743.60136128967	727
1	6567	538573.602446448108	728
1	6574	539099.047885509257	729
1	6587	540014.43966133525	730
1	6596	540808.516774652576	731
1	6601	541560.501081543094	732
1	6610	542061.999590322425	733
1	6621	543335.295176832055	734
1	6630	543931.257985951429	735
1	6641	544566.659519635191	736
1	6646	544926.871006423658	737
1	6655	545814.038870343988	738
1	6664	546574.805190553939	739
1	6673	547426.579748326963	740
1	6682	548189.352289354479	741
1	6693	549026.417217264002	742
1	6700	549642.894561868211	743
1	6709	550407.090425351684	744
1	6718	551152.055719681134	745
1	6727	551960.713746165906	746
1	6738	552877.880838839386	747
1	6745	553276.628623902847	748
1	6758	554164.310579141651	749
1	6767	554894.014904089321	750
1	6772	555507.684271037628	751
1	6781	556082.398946676453	752
1	6794	557334.695363324185	753
1	6799	557864.086022693713	754
1	6808	558368.257582001438	755
1	6821	559621.203674236362	756
1	6828	560087.648505019074	757
1	6839	560879.303841339474	758
1	6844	561463.466357113843	759
1	6857	562545.671238564005	760
1	6862	562915.781722404113	761
1	6871	563491.113334754533	762
1	6880	564344.596540136313	763
1	6889	564754.200792918031	764
1	6902	565974.133005738308	765
1	6911	566859.370591677775	766
1	6916	567386.863382253846	767
1	6925	567883.019284950619	768
1	6934	568690.918025281331	769
1	6943	569702.497944468682	770
1	6952	570596.114619495398	771
1	6961	571086.017776373824	772
1	6970	572142.995521193421	773
1	6979	572975.242548063448	774
1	6990	573960.243880888498	775
1	6999	574764.80464632628	776
1	7008	575571.771294996193	777
1	7019	576290.831139637208	778
1	7028	577169.030496524698	779
1	7035	577825.461919186688	780
1	7042	578500.326779158837	781
1	7053	579520.81149481242	782
1	7060	580021.030679298615	783
1	7071	580839.078047918207	784
1	7078	581316.924069821886	785
1	7087	582370.22847379563	786
1	7098	583077.997367084078	787
1	7105	583386.575985839642	788
1	7114	584545.028932113252	789
1	7125	585291.712188581056	790
1	7134	586006.636503059468	791
1	7143	586698.791097616828	792
1	7154	587481.414398085377	793
1	7163	588349.900833517364	794
1	7170	589040.175904752738	795
1	7181	589912.583170691556	796
1	7186	590258.70473412802	797
1	7195	590824.106555711529	798
1	7206	591969.26207500515	799
1	7215	592318.58470235025	800
1	7222	593009.206775017134	801
1	7235	593861.688977479986	802
1	7242	594579.108974849857	803
1	7251	595078.045197995431	804
1	7258	595801.296383421919	805
1	7271	596835.16092002397	806
1	7280	597588.929779222287	807
1	7287	598192.574526043661	808
1	7294	598746.831479854934	809
1	7303	599579.111586883716	810
1	7312	600419.627567566984	811
1	7323	601284.053561277741	812
1	7330	602096.366357384303	813
1	7339	602693.914837762766	814
1	7352	603880.38541688589	815
1	7359	604528.294738568418	816

