version 2
run Pipelined_3Teachers-26-20190105-10:57:23-14720
attr configname Pipelined_3Teachers
attr datetime 20190105-10:57:23
attr experiment Pipelined_3Teachers
attr inifile ../simulations/omnetpp.ini
attr iterationvars "$0=\"uniform\""
attr iterationvarsf uniform-
attr measurement "$0=\"uniform\""
attr network PipelinedExamSession
attr processid 14720
attr repetition 26
attr replication #26
attr resultdir results
attr runnumber 26
attr seedset 26
param **.teachersNumber 3
param **.answerTimeDistribution "\"uniform\""
param **.minUniform 300
param **.maxUniform 900
param **.scaleLognormal 6.2854
param **.shapeLognormal 0.4724

vector 0 PipelinedExamSession examinationTime:vector ETV
attr source examFinished
vector 1 PipelinedExamSession studentID:vector ETV
attr source student
0	3136	260288.477636268382	2119.4343603216
0	3149	261326.624383125474	2294.7754311841
0	3154	261637.006092024987	1822.641848959
0	3165	262673.540446115677	2070.8947337698
0	3174	263199.719782266785	1873.0953991413
0	3183	263867.338044103255	1684.208898386
0	3192	264691.860574297627	2009.7332726698
0	3201	265532.280744239708	2252.487414144
0	3212	266211.232492513975	2103.8405317348
0	3221	266986.533824354431	2114.8063809145
0	3226	267528.98720316591	1763.4458956774
0	3239	268465.840446157402	2254.6079536434
0	3246	269118.329300545177	2131.7954761907
0	3257	270084.875480784124	2271.6165955178
0	3266	270814.608371816596	2348.7679256592
0	3273	271203.423956315985	1917.3501442652
0	3280	271696.915959566852	1612.0404787827
0	3289	272886.769463215044	2072.1610913984
0	3300	273813.155329506865	2224.9319831841
0	3307	274614.86654332841	2150.7027848158
0	3320	275499.273318937069	2296.7896086629
0	3329	276351.843814272454	2464.2216291279
0	3336	277062.542841397246	2291.6133251041
0	3343	277528.291816776639	2029.0184978396
0	3352	278330.87549689228	1979.0316826198
0	3361	279025.769304111621	1919.4773644209
0	3374	280636.729271896205	2643.401421234
0	3379	280975.995686464033	2084.1510549188
0	3390	281851.649983925766	2106.5722518135
0	3397	282379.173273872606	1742.4440019764
0	3410	283603.789938474096	2122.1261319704
0	3419	284458.356289425887	2462.1781633236
0	3424	284991.628670739032	2133.6282642558
0	3437	285904.990547290094	2301.200608816
0	3442	286232.075949898012	1773.7196604721
0	3451	286823.326108558126	1510.6580180582
0	3462	287573.17900657656	1668.1884592865
0	3473	288431.743437331192	2052.5752853137
0	3478	288767.376811662711	1588.2578927558
0	3487	289531.346603482984	1808.0330789555
0	3496	290101.531069446377	1669.7876321152
0	3505	290933.977372292451	1796.8330022413
0	3518	291829.459545901067	2249.9814142473
0	3525	292303.63137018869	1903.9601189084
0	3536	293163.332495838425	2082.072770549
0	3541	293495.260194316528	1665.8006484155
0	3554	294391.287024132929	2060.6329714414
0	3563	295054.013505019269	1890.6810091808
0	3568	295576.330030616394	1767.1837940812
0	3581	296544.472819101087	2153.1857949682
0	3588	296957.258991943694	1903.2454869244
0	3595	297344.350408064224	1637.2419075575
0	3604	298150.302050588675	1605.8292314876
0	3615	298805.685868486784	1821.4281755034
0	3626	300180.188047047727	2513.9915264212
0	3633	300797.90178886617	2315.8146564849
0	3642	301430.508808325998	2131.3566558994
0	3653	302294.567475188545	2114.3794281408
0	3662	302857.715117326028	1896.941565536
0	3667	303546.011964278317	2011.7174031213
0	3680	304435.280612111113	2140.7131369226
0	3689	304976.809553476072	2119.09443615
0	3696	305763.346810033566	2170.1097402256
0	3703	306110.999215906507	1675.7186037954
0	3716	307166.58626329156	2189.7767098155
0	3723	307597.128828568406	1743.3452510275
0	3730	308058.525829296581	1414.9706487078
0	3743	309424.022997077577	2257.436733786
0	3752	310267.422407073923	2484.8055163398
0	3761	311018.454609531932	2403.1983037479
0	3768	311799.528240691893	2375.5052436143
0	3775	312512.528338981815	2245.1059319079
0	3784	313005.52840693856	1987.0737974066
0	3793	313661.659568175696	1809.2505086213
0	3804	314440.529708052076	1802.872285014
0	3815	315477.352098422147	2116.0477573983
0	3824	316157.292117644123	2268.7892574817
0	3829	316858.105296129382	2172.6878989488
0	3842	317714.248786680422	2236.8966882583
0	3847	318067.900929367191	1910.6088117231
0	3858	318792.936379322804	1804.8945719842
0	3865	319570.779589517064	1856.5308028366
0	3874	320287.376655964203	1942.0448541641
0	3885	321144.813927076779	1915.0039164349
0	3892	321945.924826338909	2034.414268937
0	3905	322972.551600309111	2269.1595879849
0	3914	323871.762250363849	2312.9929322284
0	3923	324499.135780055098	2357.8685981222
0	3928	324927.63583394701	1955.0842336379
0	3937	325687.649485515453	1815.8872351516
0	3946	326642.011980107077	2142.876200052
0	3959	327441.13210430371	2094.8452090379
0	3968	328251.137335924454	2172.6548475679
0	3973	328777.964026294671	1964.2252072692
0	3982	329494.915325380884	2053.7832210772
0	3995	330604.721535975136	2353.5842000507
0	4000	330908.838423108705	1970.6165183801
0	4013	332274.349183822073	2530.7030404452
0	4020	332908.081931155197	2303.3603951801
0	4029	333789.116184180625	2298.5851893201
0	4040	334455.95253123904	2181.603347417
0	4045	334950.217304611601	1982.5380465947
0	4054	335560.641570528991	1703.9679563139
0	4063	336217.739695217483	1761.7871639784
0	4072	336793.604771979176	1578.2131046522
0	4083	337669.962551817321	1881.3579377253
0	4094	338341.599814686947	1935.7159839012
0	4099	338856.225134572037	1624.3106486276
0	4108	339494.943277398147	1784.8139124457
0	4117	340284.071882441663	1942.4720677547
0	4128	341045.230671297782	2009.1915283352
0	4139	341718.404142418899	1957.3104457464
0	4144	342285.48147431577	1639.0587047674
0	4157	343361.928106052824	2247.1078786533
0	4166	344087.642504833662	2369.2383624148
0	4175	344941.18798580023	2341.7083879933
0	4180	345260.344093060144	1898.4159870073
0	4189	345878.394524473721	1790.7520196401
0	4202	346982.129650935555	2040.9416651353
0	4207	347571.98837497274	2072.5161609706
0	4216	348412.019105628157	2118.7357250601
0	4229	349119.323549419666	2137.1938984841
0	4236	349917.392908176432	2096.7044829391
0	4247	350733.467506337935	2182.403329527
0	4256	351194.519385276386	2075.1958358567
0	4265	351793.492416339019	1832.4197138194
0	4274	352454.268104257086	1720.8005979192
0	4281	353013.593629701087	1819.0742444247
0	4292	353905.976452818164	2112.4840364791
0	4301	354630.825644452149	2176.5575401951
0	4310	355502.604711474875	2352.8406333178
0	4315	355966.350896470273	2060.3744436521
0	4326	356804.915861086944	2174.0902166348
0	4337	357650.329042878026	2147.7243314032
0	4346	358485.924647189701	2258.7583099958
0	4355	359246.794230071852	2355.8050728869
0	4362	359815.957180643478	2165.6281377655
0	4369	360507.048437045912	2021.1237898562
0	4378	361492.948185559387	2246.1539554875
0	4391	362370.870483247588	2271.6134245042
0	4400	363129.413063591371	2132.8152382281
0	4409	363835.378268407683	2115.862705512
0	4414	364147.54861076365	1776.6781275161
0	4427	365316.658199066322	2187.245135475
0	4434	366049.646540125858	2214.2682717182
0	4441	366392.726209759738	1848.3853296842
0	4452	367214.494501333709	1897.8363022674
0	4461	367918.196575110803	1851.6789217014
0	4470	368509.770405152838	1931.3208072446
0	4477	369331.95669832642	2088.4538470767
0	4488	370373.818041477378	2313.2115002722
0	4495	370993.875753739874	2083.3364069927
0	4506	371818.446500832241	2051.7405145336
0	4513	372421.071076858815	1919.9550571851
0	4526	373221.656884811845	2061.2406289671
0	4535	374055.861101718646	2004.2733702343
0	4540	374474.793459149104	1930.0922099501
0	4551	375339.353167964172	2117.6962831523
0	4560	376075.646081194308	2019.7849794757
0	4571	376981.483553303433	2209.0223473962
0	4578	377661.576424213154	2271.7304863036
0	4589	378340.819410234717	2106.8839443382
0	4596	379150.417650584159	2168.9340972807
0	4603	379733.588330727098	2070.1364502311
0	4612	380139.787833904875	1798.9684236702
0	4625	381303.995790705113	2130.7925605215
0	4632	381767.462421208648	1796.1010711268
0	4641	382286.111839301912	1830.9720091056
0	4652	383175.795130524812	1871.7993398197
0	4661	383909.061465924633	2042.3319318797
0	4670	384776.642776234103	2429.9645258579
0	4675	385184.350843867315	2008.5557133425
0	4686	385933.844017982511	2024.7825520579
0	4693	386763.72793978083	1987.0851635467
0	4702	387641.179037885768	2035.7092919759
0	4711	388264.639398269383	1793.3656293433
0	4722	389229.743169900058	1889.3216311466
0	4733	390231.369194062455	2420.1913733035
0	4738	390855.233370093657	2235.9570436645
0	4749	391326.892940048157	1922.6869218517
0	4760	392112.178843980683	1880.8096499182
0	4765	392820.597146451501	1872.0705791842
0	4774	393196.934449905558	1860.222390946
0	4783	394128.353663301123	2016.1748193204
0	4794	395347.688457230134	2455.8845986146
0	4801	395711.320482613547	1969.5198324043
0	4812	396347.17890168543	1747.0509887673
0	4821	397001.59110794778	1596.0464491043
0	4832	397862.596695637359	1881.0677844565
0	4839	398575.980911403923	2077.0412912127
0	4850	399345.752816833584	2048.7004827708
0	4855	399900.466171419276	2037.8694757819
0	4864	400448.843305092334	1714.5384686999
0	4869	400982.414814177929	1636.6619973443
0	4884	402408.096588542714	2278.8910597097
0	4893	403176.861968217445	2179.2182216886
0	4902	404022.097734874142	2252.4850806221
0	4911	405176.591333700371	2518.7008393463
0	4918	405568.281324533773	2063.9925654978
0	4927	406064.67162701304	1726.5680942684
0	4940	407596.735894354088	2362.6472771633
0	4945	407962.237880565254	1946.300898632
0	4956	408958.90721529725	2225.8111672942
0	4963	409598.313545342563	2001.5776509885
0	4972	410473.907510284362	2031.8109393585
0	4981	411447.25496121685	2162.6289715525
0	4992	412364.624659996508	2279.1847611777
0	5001	413246.323106065421	2323.9807100035
0	5008	413596.236933767824	1917.2386888415
0	5021	414755.744293145863	2211.6172953509
0	5030	415447.144388034967	2059.9187368993
0	5035	416145.746043976424	2224.0885020699
0	5046	416950.311005814029	2194.5667126682
0	5057	417801.079643983422	2353.9352559485
0	5066	418559.481043741135	2332.1164266206
0	5075	419248.555918363882	2129.3582774699
0	5084	420124.440549127785	2323.3609051444
0	5091	420849.604035727707	2290.1229919866
0	5100	421437.466333759976	2188.9104153961
0	5109	421833.853621641201	1709.4130725134
0	5116	422675.391728198184	1780.8957183268
0	5125	423475.228831591113	1971.1328844074
0	5136	424430.616515921457	2162.9336862825
0	5143	424968.210284085973	1841.1651831586
0	5156	426149.866021843655	2433.9848970529
0	5165	427027.15830132368	2548.8347351085
0	5172	427631.029439996956	2366.6657613125
0	5181	428381.091999169467	2231.2259773258
0	5188	428834.806678444175	1807.6483771205
0	5201	429766.700754733784	2058.6890657432
0	5208	430255.134583683712	1868.2189829182
0	5217	430782.212110469145	1527.9923372436
0	5224	431403.859282471268	1637.1585277375
0	5237	432475.091402325807	2136.7189710494
0	5244	433093.410417437581	2162.6912801061
0	5251	433764.122108090697	2087.2912283521
0	5260	434413.517867540968	1938.4264652152
0	5271	435214.247657451807	2104.5856485609
0	5280	435852.172317355899	1865.1966179721
0	5287	436403.064229153124	1832.6208621729
0	5298	437624.932770291372	2388.9275749214
0	5309	438499.052916420652	2542.3024472315
0	5316	439215.417240047856	2436.7894642521
0	5327	439847.241738997429	2216.4599352982
0	5336	440711.337604466855	2212.2846880462
0	5343	441515.864327922493	2179.7762041446
0	5354	442309.210907807603	2461.9691688102
0	5363	443161.330678034603	2449.9930735677
0	5368	443547.329977015063	1998.0360469781
0	5381	444643.988905800536	2334.7779979929
0	5388	445388.299615820899	2226.9689377863
0	5399	446296.305179083749	2549.0033961833
0	5406	447020.222490699991	2376.2335848995
0	5417	447649.121407605737	2207.1545689367
0	5426	448530.347599927365	2234.0424208436
0	5431	448919.639442628279	1873.6199037172
0	5440	449698.93012898977	2049.808721384
0	5451	450631.031496310636	2100.6838963833
0	5462	451585.747621301591	2288.6617173906
0	5471	452225.938557554066	2193.4961377177
0	5478	452998.767791222811	2101.0037873872
0	5487	453615.329530276388	2029.5819089748
0	5494	454148.9444673993	1923.0059098452
0	5505	454903.355848928944	1843.2631025556
0	5512	455259.920326899768	1479.201300675
0	5525	456515.489954687685	2220.9375859704
0	5530	456963.6142227799	2005.0995214842
0	5539	457607.389237638594	1971.6702444479
0	5548	458167.504826327817	1652.0148716401
0	5557	459066.013777535439	1910.0649006665
0	5566	459672.994216578111	1933.4814326372
0	5575	460368.687741039352	1776.3309437782
0	5586	461374.456241028414	1892.3126652371
0	5597	462290.682812919871	2201.1165250093
0	5602	462592.54867443818	1675.7424394134
0	5613	463481.353693362357	2027.2896255367
0	5622	464074.961863132225	1784.2790502124
0	5631	464945.546242548184	2180.9675148223
0	5638	465416.97107939984	1871.2123108562
0	5647	466390.989048639343	2023.9835813642
0	5656	467263.226824812623	2232.3213748634
0	5667	468023.365670722009	2115.7733241096
0	5676	468876.562350941853	2091.5192162152
0	5687	469447.148923063682	2021.8768204562
0	5694	469940.503234276579	1670.868442487
0	5705	470910.222287150131	1891.0664157942
0	5710	471212.994377408208	1765.8454543445
0	5719	472096.543871937351	2045.5631329212
0	5730	472958.432846283572	2048.2105591334
0	5737	473500.716245966064	1773.9473091904
0	5746	474302.983001433343	1695.5644095317
0	5757	474982.221207395227	1692.1437418554
0	5764	475431.428402150081	1505.4731880315
0	5773	476350.60825799595	1866.5581018198
0	5782	477051.823988137798	1946.7434112914
0	5795	478526.210266258599	2600.7830879185
0	5802	479138.065920118274	2353.8331245538
0	5813	479986.217056307973	2338.3282132912
0	5820	480469.168208353253	1942.9579420947
0	5827	481273.255017260121	1958.4408941679
0	5840	482243.153513129832	2256.9364568219
0	5845	483016.152730817007	2285.5308950879
0	5856	483685.223865229668	2133.9789982885
0	5865	484532.850521430405	2289.6970083006
0	5874	485280.287638586046	2171.0955052637
0	5881	485728.916008723931	1731.2792393379
0	5890	486447.961905598673	1748.1735961977
0	5899	487386.631588730993	2064.9668084923
0	5908	488041.369813028755	1988.6342307553
0	5921	489049.860297096926	2192.9290027823
0	5930	489896.532351197708	2351.8788373098
0	5935	490338.132937531951	2034.6274729818
0	5948	491476.162661192972	2426.302364096
0	5957	492238.716093264554	2342.1837420668
0	5966	493103.084483882446	2348.0834862683
0	5975	493690.674406662617	2214.5117454696
0	5982	494323.159587197039	2084.4434939325
0	5991	494789.476592559401	1686.392108677
0	5998	495798.898309003596	2108.223902341
0	6007	496411.302761687	2066.9936934952
0	6016	497435.139987152104	2200.5359752569
0	6027	498180.488001555239	2125.2690915484
0	6034	498650.269202375819	1766.1226843949
0	6045	499487.845382513513	1882.9180895817
0	6056	500582.062401250039	2143.1029847357
0	6063	501191.522782109712	2232.6449121349
0	6074	502127.103792456945	2409.4359253999
0	6079	502737.480334471946	2155.4179332219
0	6090	503625.476312544232	2298.8482476678
0	6101	504441.93537170071	2314.8315792438
0	6108	505051.704598031974	2055.6570804678
0	6115	505497.135231597385	1619.6318213828
0	6128	506583.005599770731	2141.07022807
0	6133	506927.121331449634	1594.6159686428
0	6142	507563.016362395173	1674.225338269
0	6153	508554.527185717634	1971.5215859469
0	6160	508918.519447837061	1719.7530885693
0	6169	509614.184348657763	1774.1592541337
0	6182	510829.473593412004	2092.0845326968
0	6191	511552.493210881985	2209.7660370637
0	6200	512008.807745156846	2019.7121665813
0	6205	512534.90877547305	1705.435182061
0	6214	513064.186717942393	1511.6935070604
0	6223	513823.635788122229	1814.8280429654
0	6236	514650.372413545884	1976.9640660379
0	6245	515431.058210833035	1986.5818931255
0	6252	516102.360831946171	2144.2943767179
0	6261	516976.187966717444	2325.8155531716
0	6268	517360.595867363774	1929.5376565307
0	6277	518320.748693682291	1998.6516582314
0	6286	519129.58825305108	2092.3956739716
0	6299	520318.852149322667	2387.3701448087
0	6304	520996.037526894399	2264.6926052403
0	6317	522039.059346634932	2418.7627416104
0	6324	522806.758664874397	2487.9065155517
0	6333	523263.174249418117	2049.8726037797
0	6344	524487.11171862673	2448.0523719918
0	6353	525359.876362234391	2478.217911534
0	6360	525750.630768528245	2076.6306830104
0	6367	526105.687045538835	1618.5753269121
0	6376	527512.832376267797	2152.9560140334
0	6385	528081.583457440175	1990.6733294483
0	6394	529163.001738209315	2380.7653565425
0	6407	530197.137656668239	2542.3251186032
0	6412	530628.27628883537	2074.9903210904
0	6421	531622.788481693752	2179.0386114735
0	6434	532627.71051591266	2430.5728592444
0	6441	533310.242397291624	2238.9533700887
0	6448	533946.150208544024	2140.0543852709
0	6457	534584.227534616404	1956.5170187037
0	6470	535742.396964831315	2231.8218234926
0	6477	536622.381819505282	2270.9974450059
0	6484	537068.773441063278	2210.542942537
0	6497	538141.412533633449	2399.0155688021
0	6506	538901.746708899775	2279.0654196404
0	6513	539779.909121291751	2295.5690303352
0	6522	540406.241975538471	2264.829441905
0	6529	540913.748979242557	2012.0022703428
0	6538	541425.429349858352	1629.8177548684
0	6551	542368.698984710539	1940.903442353
0	6560	543036.285847937728	1738.6853260919
0	6567	543804.258146183605	2067.5055678003
0	6574	544193.108862172852	1824.4098774623
0	6579	544670.763997826766	1634.478149889
0	6594	546033.812844799872	2201.3403746299
0	6601	546453.79315498289	1761.6334021557
0	6610	547197.218372393441	1721.0261135828
0	6619	548031.087032659021	1969.5908455644
0	6630	549151.549414359074	2263.6767628603
0	6641	550028.095043683466	2334.4061356969
0	6650	550535.876623028931	2082.0943712723
0	6655	550839.069970557508	1560.6413810514
0	6668	551799.644307559398	1771.5492638759
0	6675	552466.958993207705	1931.0823701788
0	6686	553336.049154354302	2339.4433285575
0	6695	553917.697752267165	2118.0534447078
0	6704	554775.494399154602	2216.8933249544
0	6711	555297.516525629951	1961.4673712756
0	6718	555865.761744836389	1948.0639925692
0	6729	556964.368123048959	2188.8737238944
0	6738	557715.955790318591	2104.0493629407
0	6745	558373.268030863298	1889.1718023922
0	6758	559224.278882984115	2092.0144974254
0	6767	559881.401599338321	2004.6042112168
0	6776	560745.942515088288	2265.1862338185
0	6783	561268.977220309941	2044.6983373258
0	6792	561662.201923783911	1780.8003244456
0	6803	562376.367439376233	1630.4249242879
0	6808	563038.271422823934	1719.3578721955
0	6817	563727.029910078315	1851.0115101468
0	6830	564609.240593947513	2232.8731545713
0	6835	565042.8612579592	1824.5638788678
0	6844	565797.931415867103	1920.5386749934
0	6855	566940.393599728166	2331.1530057807
0	6864	567456.256549805446	2036.5174558014
0	6871	568279.184572119309	2160.0176843349
0	6882	569242.037802189632	2245.1857118402
0	6893	570063.262625271498	2338.2074513007
0	6898	570377.241151453971	1953.1117719132
0	6907	570894.78992968802	1627.8779368848
0	6918	572047.570618428334	1984.3079931568
0	6925	572600.110330106734	2000.8116827812
0	6934	573497.515800688459	2052.3027506657
0	6943	574490.845073014541	2235.3389934171
0	6956	575422.164176031991	2338.7296945788
0	6963	576248.587078973695	2306.9208553992
0	6972	576815.646999422505	2056.1894661281
0	6981	577823.916198033884	2401.7520220019
0	6992	578604.648520750969	2337.7486774698
0	6997	578999.601026298522	2005.0092664082
0	7006	579638.795345323205	1807.1388810407
0	7019	580624.965764069974	2020.317243319
0	7026	581387.742160912647	2203.2919018529
0	7035	581813.726816419557	2046.6610760428
0	7042	582145.489455387041	1520.5236913171
0	7051	582738.34982500416	1311.7269447539
0	7060	584177.192369755402	2355.1010110416
0	7069	584805.695259058892	2225.8086440619
0	7078	585526.114042801826	2129.151852848
0	7089	586453.004298917994	2158.9983046521
0	7096	586785.932969301984	1803.0028353911
0	7109	588139.403426181569	2304.8184286337
0	7116	588716.181776393249	2059.2468971852
0	7125	589406.945696426599	1963.2074241992
0	7134	590016.678815474778	1877.2753892932
0	7141	590395.311326254204	1600.3895943984
0	7154	591699.708579853222	2024.0339060314
0	7163	592472.671176865742	2389.0502116643
0	7172	593307.270288700283	2391.4958675858
0	7181	594033.568375278309	2333.8597954251
0	7190	594817.449469026223	2344.7782921605
0	7199	595465.350993862421	2158.0807051621
0	7204	596008.598506450698	1975.0301311724
0	7215	596744.136341521562	1926.6868724953
0	7224	597219.621916255028	1754.2709223926
0	7235	598179.875085828871	1905.2974796388
0	7244	598599.741830444009	1780.4000254255
0	7249	598957.41803348069	1484.2609415296
0	7258	599601.636305311741	1421.7612194829
0	7271	600930.819825036496	2331.0779945925
0	7276	601248.617936018899	1823.3530743979
0	7289	602402.689688326836	2253.419895703
0	7294	603003.391396952838	2072.5715719163
0	7305	603595.605214219585	1977.9266274534
0	7312	603966.490737162575	1563.8010488357
1	3136	260288.477636268382	347
1	3149	261326.624383125474	348
1	3154	261637.006092024987	349
1	3165	262673.540446115677	350
1	3174	263199.719782266785	351
1	3183	263867.338044103255	352
1	3192	264691.860574297627	353
1	3201	265532.280744239708	354
1	3212	266211.232492513975	355
1	3221	266986.533824354431	356
1	3226	267528.98720316591	357
1	3239	268465.840446157402	358
1	3246	269118.329300545177	359
1	3257	270084.875480784124	360
1	3266	270814.608371816596	361
1	3273	271203.423956315985	362
1	3280	271696.915959566852	363
1	3289	272886.769463215044	364
1	3300	273813.155329506865	365
1	3307	274614.86654332841	366
1	3320	275499.273318937069	367
1	3329	276351.843814272454	368
1	3336	277062.542841397246	369
1	3343	277528.291816776639	370
1	3352	278330.87549689228	371
1	3361	279025.769304111621	372
1	3374	280636.729271896205	373
1	3379	280975.995686464033	374
1	3390	281851.649983925766	375
1	3397	282379.173273872606	376
1	3410	283603.789938474096	377
1	3419	284458.356289425887	378
1	3424	284991.628670739032	379
1	3437	285904.990547290094	380
1	3442	286232.075949898012	381
1	3451	286823.326108558126	382
1	3462	287573.17900657656	383
1	3473	288431.743437331192	384
1	3478	288767.376811662711	385
1	3487	289531.346603482984	386
1	3496	290101.531069446377	387
1	3505	290933.977372292451	388
1	3518	291829.459545901067	389
1	3525	292303.63137018869	390
1	3536	293163.332495838425	391
1	3541	293495.260194316528	392
1	3554	294391.287024132929	393
1	3563	295054.013505019269	394
1	3568	295576.330030616394	395
1	3581	296544.472819101087	396
1	3588	296957.258991943694	397
1	3595	297344.350408064224	398
1	3604	298150.302050588675	399
1	3615	298805.685868486784	400
1	3626	300180.188047047727	401
1	3633	300797.90178886617	402
1	3642	301430.508808325998	403
1	3653	302294.567475188545	404
1	3662	302857.715117326028	405
1	3667	303546.011964278317	406
1	3680	304435.280612111113	407
1	3689	304976.809553476072	408
1	3696	305763.346810033566	409
1	3703	306110.999215906507	410
1	3716	307166.58626329156	411
1	3723	307597.128828568406	412
1	3730	308058.525829296581	413
1	3743	309424.022997077577	414
1	3752	310267.422407073923	415
1	3761	311018.454609531932	416
1	3768	311799.528240691893	417
1	3775	312512.528338981815	418
1	3784	313005.52840693856	419
1	3793	313661.659568175696	420
1	3804	314440.529708052076	421
1	3815	315477.352098422147	422
1	3824	316157.292117644123	423
1	3829	316858.105296129382	424
1	3842	317714.248786680422	425
1	3847	318067.900929367191	426
1	3858	318792.936379322804	427
1	3865	319570.779589517064	428
1	3874	320287.376655964203	429
1	3885	321144.813927076779	430
1	3892	321945.924826338909	431
1	3905	322972.551600309111	432
1	3914	323871.762250363849	433
1	3923	324499.135780055098	434
1	3928	324927.63583394701	435
1	3937	325687.649485515453	436
1	3946	326642.011980107077	437
1	3959	327441.13210430371	438
1	3968	328251.137335924454	439
1	3973	328777.964026294671	440
1	3982	329494.915325380884	441
1	3995	330604.721535975136	442
1	4000	330908.838423108705	443
1	4013	332274.349183822073	444
1	4020	332908.081931155197	445
1	4029	333789.116184180625	446
1	4040	334455.95253123904	447
1	4045	334950.217304611601	448
1	4054	335560.641570528991	449
1	4063	336217.739695217483	450
1	4072	336793.604771979176	451
1	4083	337669.962551817321	452
1	4094	338341.599814686947	453
1	4099	338856.225134572037	454
1	4108	339494.943277398147	455
1	4117	340284.071882441663	456
1	4128	341045.230671297782	457
1	4139	341718.404142418899	458
1	4144	342285.48147431577	459
1	4157	343361.928106052824	460
1	4166	344087.642504833662	461
1	4175	344941.18798580023	462
1	4180	345260.344093060144	463
1	4189	345878.394524473721	464
1	4202	346982.129650935555	465
1	4207	347571.98837497274	466
1	4216	348412.019105628157	467
1	4229	349119.323549419666	468
1	4236	349917.392908176432	469
1	4247	350733.467506337935	470
1	4256	351194.519385276386	471
1	4265	351793.492416339019	472
1	4274	352454.268104257086	473
1	4281	353013.593629701087	474
1	4292	353905.976452818164	475
1	4301	354630.825644452149	476
1	4310	355502.604711474875	477
1	4315	355966.350896470273	478
1	4326	356804.915861086944	479
1	4337	357650.329042878026	480
1	4346	358485.924647189701	481
1	4355	359246.794230071852	482
1	4362	359815.957180643478	483
1	4369	360507.048437045912	484
1	4378	361492.948185559387	485
1	4391	362370.870483247588	486
1	4400	363129.413063591371	487
1	4409	363835.378268407683	488
1	4414	364147.54861076365	489
1	4427	365316.658199066322	490
1	4434	366049.646540125858	491
1	4441	366392.726209759738	492
1	4452	367214.494501333709	493
1	4461	367918.196575110803	494
1	4470	368509.770405152838	495
1	4477	369331.95669832642	496
1	4488	370373.818041477378	497
1	4495	370993.875753739874	498
1	4506	371818.446500832241	499
1	4513	372421.071076858815	500
1	4526	373221.656884811845	501
1	4535	374055.861101718646	502
1	4540	374474.793459149104	503
1	4551	375339.353167964172	504
1	4560	376075.646081194308	505
1	4571	376981.483553303433	506
1	4578	377661.576424213154	507
1	4589	378340.819410234717	508
1	4596	379150.417650584159	509
1	4603	379733.588330727098	510
1	4612	380139.787833904875	511
1	4625	381303.995790705113	512
1	4632	381767.462421208648	513
1	4641	382286.111839301912	514
1	4652	383175.795130524812	515
1	4661	383909.061465924633	516
1	4670	384776.642776234103	517
1	4675	385184.350843867315	518
1	4686	385933.844017982511	519
1	4693	386763.72793978083	520
1	4702	387641.179037885768	521
1	4711	388264.639398269383	522
1	4722	389229.743169900058	523
1	4733	390231.369194062455	524
1	4738	390855.233370093657	525
1	4749	391326.892940048157	526
1	4760	392112.178843980683	527
1	4765	392820.597146451501	528
1	4774	393196.934449905558	529
1	4783	394128.353663301123	530
1	4794	395347.688457230134	531
1	4801	395711.320482613547	532
1	4812	396347.17890168543	533
1	4821	397001.59110794778	534
1	4832	397862.596695637359	535
1	4839	398575.980911403923	536
1	4850	399345.752816833584	537
1	4855	399900.466171419276	538
1	4864	400448.843305092334	539
1	4869	400982.414814177929	540
1	4884	402408.096588542714	541
1	4893	403176.861968217445	542
1	4902	404022.097734874142	543
1	4911	405176.591333700371	544
1	4918	405568.281324533773	545
1	4927	406064.67162701304	546
1	4940	407596.735894354088	547
1	4945	407962.237880565254	548
1	4956	408958.90721529725	549
1	4963	409598.313545342563	550
1	4972	410473.907510284362	551
1	4981	411447.25496121685	552
1	4992	412364.624659996508	553
1	5001	413246.323106065421	554
1	5008	413596.236933767824	555
1	5021	414755.744293145863	556
1	5030	415447.144388034967	557
1	5035	416145.746043976424	558
1	5046	416950.311005814029	559
1	5057	417801.079643983422	560
1	5066	418559.481043741135	561
1	5075	419248.555918363882	562
1	5084	420124.440549127785	563
1	5091	420849.604035727707	564
1	5100	421437.466333759976	565
1	5109	421833.853621641201	566
1	5116	422675.391728198184	567
1	5125	423475.228831591113	568
1	5136	424430.616515921457	569
1	5143	424968.210284085973	570
1	5156	426149.866021843655	571
1	5165	427027.15830132368	572
1	5172	427631.029439996956	573
1	5181	428381.091999169467	574
1	5188	428834.806678444175	575
1	5201	429766.700754733784	576
1	5208	430255.134583683712	577
1	5217	430782.212110469145	578
1	5224	431403.859282471268	579
1	5237	432475.091402325807	580
1	5244	433093.410417437581	581
1	5251	433764.122108090697	582
1	5260	434413.517867540968	583
1	5271	435214.247657451807	584
1	5280	435852.172317355899	585
1	5287	436403.064229153124	586
1	5298	437624.932770291372	587
1	5309	438499.052916420652	588
1	5316	439215.417240047856	589
1	5327	439847.241738997429	590
1	5336	440711.337604466855	591
1	5343	441515.864327922493	592
1	5354	442309.210907807603	593
1	5363	443161.330678034603	594
1	5368	443547.329977015063	595
1	5381	444643.988905800536	596
1	5388	445388.299615820899	597
1	5399	446296.305179083749	598
1	5406	447020.222490699991	599
1	5417	447649.121407605737	600
1	5426	448530.347599927365	601
1	5431	448919.639442628279	602
1	5440	449698.93012898977	603
1	5451	450631.031496310636	604
1	5462	451585.747621301591	605
1	5471	452225.938557554066	606
1	5478	452998.767791222811	607
1	5487	453615.329530276388	608
1	5494	454148.9444673993	609
1	5505	454903.355848928944	610
1	5512	455259.920326899768	611
1	5525	456515.489954687685	612
1	5530	456963.6142227799	613
1	5539	457607.389237638594	614
1	5548	458167.504826327817	615
1	5557	459066.013777535439	616
1	5566	459672.994216578111	617
1	5575	460368.687741039352	618
1	5586	461374.456241028414	619
1	5597	462290.682812919871	620
1	5602	462592.54867443818	621
1	5613	463481.353693362357	622
1	5622	464074.961863132225	623
1	5631	464945.546242548184	624
1	5638	465416.97107939984	625
1	5647	466390.989048639343	626
1	5656	467263.226824812623	627
1	5667	468023.365670722009	628
1	5676	468876.562350941853	629
1	5687	469447.148923063682	630
1	5694	469940.503234276579	631
1	5705	470910.222287150131	632
1	5710	471212.994377408208	633
1	5719	472096.543871937351	634
1	5730	472958.432846283572	635
1	5737	473500.716245966064	636
1	5746	474302.983001433343	637
1	5757	474982.221207395227	638
1	5764	475431.428402150081	639
1	5773	476350.60825799595	640
1	5782	477051.823988137798	641
1	5795	478526.210266258599	642
1	5802	479138.065920118274	643
1	5813	479986.217056307973	644
1	5820	480469.168208353253	645
1	5827	481273.255017260121	646
1	5840	482243.153513129832	647
1	5845	483016.152730817007	648
1	5856	483685.223865229668	649
1	5865	484532.850521430405	650
1	5874	485280.287638586046	651
1	5881	485728.916008723931	652
1	5890	486447.961905598673	653
1	5899	487386.631588730993	654
1	5908	488041.369813028755	655
1	5921	489049.860297096926	656
1	5930	489896.532351197708	657
1	5935	490338.132937531951	658
1	5948	491476.162661192972	659
1	5957	492238.716093264554	660
1	5966	493103.084483882446	661
1	5975	493690.674406662617	662
1	5982	494323.159587197039	663
1	5991	494789.476592559401	664
1	5998	495798.898309003596	665
1	6007	496411.302761687	666
1	6016	497435.139987152104	667
1	6027	498180.488001555239	668
1	6034	498650.269202375819	669
1	6045	499487.845382513513	670
1	6056	500582.062401250039	671
1	6063	501191.522782109712	672
1	6074	502127.103792456945	673
1	6079	502737.480334471946	674
1	6090	503625.476312544232	675
1	6101	504441.93537170071	676
1	6108	505051.704598031974	677
1	6115	505497.135231597385	678
1	6128	506583.005599770731	679
1	6133	506927.121331449634	680
1	6142	507563.016362395173	681
1	6153	508554.527185717634	682
1	6160	508918.519447837061	683
1	6169	509614.184348657763	684
1	6182	510829.473593412004	685
1	6191	511552.493210881985	686
1	6200	512008.807745156846	687
1	6205	512534.90877547305	688
1	6214	513064.186717942393	689
1	6223	513823.635788122229	690
1	6236	514650.372413545884	691
1	6245	515431.058210833035	692
1	6252	516102.360831946171	693
1	6261	516976.187966717444	694
1	6268	517360.595867363774	695
1	6277	518320.748693682291	696
1	6286	519129.58825305108	697
1	6299	520318.852149322667	698
1	6304	520996.037526894399	699
1	6317	522039.059346634932	700
1	6324	522806.758664874397	701
1	6333	523263.174249418117	702
1	6344	524487.11171862673	703
1	6353	525359.876362234391	704
1	6360	525750.630768528245	705
1	6367	526105.687045538835	706
1	6376	527512.832376267797	707
1	6385	528081.583457440175	708
1	6394	529163.001738209315	709
1	6407	530197.137656668239	710
1	6412	530628.27628883537	711
1	6421	531622.788481693752	712
1	6434	532627.71051591266	713
1	6441	533310.242397291624	714
1	6448	533946.150208544024	715
1	6457	534584.227534616404	716
1	6470	535742.396964831315	717
1	6477	536622.381819505282	718
1	6484	537068.773441063278	719
1	6497	538141.412533633449	720
1	6506	538901.746708899775	721
1	6513	539779.909121291751	722
1	6522	540406.241975538471	723
1	6529	540913.748979242557	724
1	6538	541425.429349858352	725
1	6551	542368.698984710539	726
1	6560	543036.285847937728	727
1	6567	543804.258146183605	728
1	6574	544193.108862172852	729
1	6579	544670.763997826766	730
1	6594	546033.812844799872	731
1	6601	546453.79315498289	732
1	6610	547197.218372393441	733
1	6619	548031.087032659021	734
1	6630	549151.549414359074	735
1	6641	550028.095043683466	736
1	6650	550535.876623028931	737
1	6655	550839.069970557508	738
1	6668	551799.644307559398	739
1	6675	552466.958993207705	740
1	6686	553336.049154354302	741
1	6695	553917.697752267165	742
1	6704	554775.494399154602	743
1	6711	555297.516525629951	744
1	6718	555865.761744836389	745
1	6729	556964.368123048959	746
1	6738	557715.955790318591	747
1	6745	558373.268030863298	748
1	6758	559224.278882984115	749
1	6767	559881.401599338321	750
1	6776	560745.942515088288	751
1	6783	561268.977220309941	752
1	6792	561662.201923783911	753
1	6803	562376.367439376233	754
1	6808	563038.271422823934	755
1	6817	563727.029910078315	756
1	6830	564609.240593947513	757
1	6835	565042.8612579592	758
1	6844	565797.931415867103	759
1	6855	566940.393599728166	760
1	6864	567456.256549805446	761
1	6871	568279.184572119309	762
1	6882	569242.037802189632	763
1	6893	570063.262625271498	764
1	6898	570377.241151453971	765
1	6907	570894.78992968802	766
1	6918	572047.570618428334	767
1	6925	572600.110330106734	768
1	6934	573497.515800688459	769
1	6943	574490.845073014541	770
1	6956	575422.164176031991	771
1	6963	576248.587078973695	772
1	6972	576815.646999422505	773
1	6981	577823.916198033884	774
1	6992	578604.648520750969	775
1	6997	578999.601026298522	776
1	7006	579638.795345323205	777
1	7019	580624.965764069974	778
1	7026	581387.742160912647	779
1	7035	581813.726816419557	780
1	7042	582145.489455387041	781
1	7051	582738.34982500416	782
1	7060	584177.192369755402	783
1	7069	584805.695259058892	784
1	7078	585526.114042801826	785
1	7089	586453.004298917994	786
1	7096	586785.932969301984	787
1	7109	588139.403426181569	788
1	7116	588716.181776393249	789
1	7125	589406.945696426599	790
1	7134	590016.678815474778	791
1	7141	590395.311326254204	792
1	7154	591699.708579853222	793
1	7163	592472.671176865742	794
1	7172	593307.270288700283	795
1	7181	594033.568375278309	796
1	7190	594817.449469026223	797
1	7199	595465.350993862421	798
1	7204	596008.598506450698	799
1	7215	596744.136341521562	800
1	7224	597219.621916255028	801
1	7235	598179.875085828871	802
1	7244	598599.741830444009	803
1	7249	598957.41803348069	804
1	7258	599601.636305311741	805
1	7271	600930.819825036496	806
1	7276	601248.617936018899	807
1	7289	602402.689688326836	808
1	7294	603003.391396952838	809
1	7305	603595.605214219585	810
1	7312	603966.490737162575	811

