version 2
run Pipelined_3Teachers-91-20190105-10:57:38-14896
attr configname Pipelined_3Teachers
attr datetime 20190105-10:57:38
attr experiment Pipelined_3Teachers
attr inifile ../simulations/omnetpp.ini
attr iterationvars "$0=\"uniform\""
attr iterationvarsf uniform-
attr measurement "$0=\"uniform\""
attr network PipelinedExamSession
attr processid 14896
attr repetition 91
attr replication #91
attr resultdir results
attr runnumber 91
attr seedset 91
param **.teachersNumber 3
param **.answerTimeDistribution "\"uniform\""
param **.minUniform 300
param **.maxUniform 900
param **.scaleLognormal 6.2854
param **.shapeLognormal 0.4724

vector 0 PipelinedExamSession examinationTime:vector ETV
attr source examFinished
vector 1 PipelinedExamSession studentID:vector ETV
attr source student
0	3140	260021.184841822862	2122.9405459017
0	3149	260769.397154683276	2043.1457789149
0	3156	261514.336560945987	1961.2306972034
0	3163	261857.425758428901	1836.240916606
0	3172	262569.14299330677	1799.7458386235
0	3183	263709.33205531913	2117.1617158223
0	3192	264419.504259293928	2022.9972430039
0	3203	265313.019896205544	2128.6621720064
0	3208	265786.75540597181	1826.0602512863
0	3217	266439.868690352916	1914.0120070428
0	3228	267413.508458761527	2100.488562556
0	3237	268292.650100542261	2274.0465950221
0	3246	269111.99713423851	2388.8642919715
0	3253	269456.083490001066	1937.8500362858
0	3262	270324.973956635251	1913.6338252109
0	3273	271337.049117498129	2142.3591163941
0	3284	272202.100737439498	2154.3906833511
0	3289	272625.582127366245	2006.5581965726
0	3302	273361.066091526329	1943.7421292067
0	3311	274210.058259917452	2007.957522478
0	3318	274749.376764614164	2076.0811211541
0	3329	275403.153072763264	2042.0869812369
0	3338	276200.711135286868	1990.6528753694
0	3347	276999.01258754547	2033.101418009
0	3356	277818.262404436276	2415.109331673
0	3363	278437.492841295928	2236.7817060091
0	3372	279169.769697496698	2170.7571099512
0	3379	279865.857839584381	2047.5954351481
0	3392	280735.010486142741	2102.1990544628
0	3401	281369.846526766227	2169.6001295932
0	3410	282078.605116065623	2084.3790310901
0	3415	282535.380563512476	1800.3700773697
0	3424	283218.070853641288	1848.2243268751
0	3433	284249.905808782236	2171.3006927166
0	3442	284781.451964797484	1883.4412298631
0	3453	286123.798100324379	2343.7653215602
0	3462	286825.659277802365	2190.2607304975
0	3469	287193.871337268533	1789.0992181376
0	3482	288498.311834642696	2295.8004694898
0	3487	289172.214652877333	2072.6671757642
0	3496	289725.18971138637	1926.6213464085
0	3509	290935.791045147958	2437.4792105053
0	3516	291467.271328065577	2169.2322387826
0	3523	292202.267451630938	2004.3152082246
0	3532	292905.060958396676	1969.2699132487
0	3541	293778.830764303016	1996.8939674087
0	3552	294531.584233185309	1972.9820766952
0	3559	295314.784066379103	2025.6739979144
0	3568	295754.049583990159	1639.5120398607
0	3579	296350.684313010457	1428.9771087002
0	3586	296796.808668645131	1353.1429348513
0	3597	297877.096403902429	1905.9814564884
0	3604	298395.730334892901	1603.1632997096
0	3613	299274.376327917013	1922.7014891803
0	3624	300238.376431167159	2024.6097200084
0	3631	300669.291772786561	1740.9594539087
0	3636	301309.23004522923	1589.474983234
0	3651	302648.660198086907	2078.7284135353
0	3658	303067.932153353502	1731.8780461326
0	3669	304432.450801134144	2366.6413611732
0	3680	305104.711426282335	2197.5584086496
0	3687	305846.298473188687	2084.2542889528
0	3696	306421.619434095953	1825.5529029295
0	3703	307243.859988916699	2139.1485626344
0	3714	307979.194387234781	1987.2392445803
0	3725	308821.34218225259	2297.6545528974
0	3732	309537.558532739092	2127.202191297
0	3739	309950.586637062986	1727.3202877957
0	3748	310582.492376491462	1761.1501942389
0	3757	311242.400360712815	1559.4807425514
0	3768	312130.409913696383	1665.1494431309
0	3777	312947.967284917866	1914.829291217
0	3784	313702.361989254167	2040.0514836889
0	3795	314520.712106768076	2107.2285714559
0	3802	315151.054119458456	1940.3135281987
0	3815	316254.782316321541	2206.3925439958
0	3820	316608.522955421392	2006.0684124939
0	3833	317816.950603388284	2319.1759153269
0	3838	318272.958820452948	2018.1765041314
0	3851	319346.880001388524	2350.6438184995
0	3856	319815.052132448215	1998.1015290599
0	3867	320347.607037378509	1875.8969292976
0	3878	321244.313795585219	1897.4337941967
0	3887	322022.826868901063	2041.5761834476
0	3896	322749.965049745549	2385.5094102211
0	3903	323132.730937516351	1888.4171419311
0	3912	324005.735347420011	1982.9084785189
0	3919	324605.938201071728	1855.9731513262
0	3930	325395.601849118282	2040.1685864199
0	3939	326211.653679516201	1997.9967209045
0	3950	327065.081231156398	2085.8572400641
0	3957	327499.627804476802	1993.3207768947
0	3964	327948.048205347766	1639.9223616812
0	3973	328523.022360121866	1457.9411289655
0	3982	329542.5531829242	1831.6402282566
0	3995	330483.971031149883	2196.6163647361
0	4004	331132.39683019932	2035.7576854527
0	4013	331814.014395978335	2032.4989068322
0	4020	332463.705134298686	1979.7341031488
0	4027	333042.985179321874	1910.5883491226
0	4040	333881.947598280418	2067.9332023021
0	4049	334723.467110982198	2125.5290643778
0	4058	335281.573636690188	2042.9335998371
0	4065	335936.367330327663	2054.4197320472
0	4072	336399.056847067583	1675.5897360854
0	4083	337330.482852878082	2048.9092161879
0	4094	338167.659943085197	2007.639486948
0	4103	338954.006977938149	2122.3206987139
0	4108	339332.85696068782	1831.2005910091
0	4121	340369.711828138713	2202.0518850535
0	4126	340929.948809696395	1975.9418317582
0	4137	341668.174885120277	2156.4129437786
0	4144	342195.708274282549	1825.9964461438
0	4157	343426.425415976007	2396.5217441786
0	4166	344154.035748867352	2398.1111861765
0	4173	344878.312145406414	2337.0121082291
0	4180	345302.245620125939	1875.8202041499
0	4191	345997.140199737658	1843.1044508703
0	4198	346339.685301762108	1425.3357816953
0	4207	346704.569846391712	1071.1635779589
0	4216	347749.221553048153	1748.3347948641
0	4227	348757.805889146437	2256.6388609819
0	4236	349471.000896999647	2148.3406316489
0	4243	349830.188857158681	1781.2040621415
0	4254	350596.145209483837	1691.2546187639
0	4261	351550.939983408934	2034.3966857996
0	4274	352684.264416201076	2473.2996704523
0	4279	353277.601825073397	2307.3052902706
0	4290	354325.797657994589	2536.3719847519
0	4301	355027.648166986218	2343.3837507851
0	4310	355785.564781073517	2267.549323244
0	4319	356230.01091862101	1846.5375486296
0	4328	357088.24102724906	2060.5928602628
0	4335	357839.703838946335	2054.1390578728
0	4344	358619.352333527095	2389.3414149061
0	4353	359503.122797096184	2414.8817698471
0	4360	359945.363145181945	2050.099931052
0	4373	360918.927349336482	2273.6352659762
0	4378	361399.357515340708	1873.8989949692
0	4389	362117.380958190225	1901.4873663895
0	4396	362482.704322552346	1563.7769732159
0	4409	363262.091005733274	1616.8290270958
0	4418	364020.278845354952	1744.6889769752
0	4425	364444.03950157579	1773.7041511573
0	4432	365039.829030912406	1777.7380251791
0	4441	365574.244176596441	1553.9653312415
0	4452	366306.471438612827	1446.3932905812
0	4459	367005.55196162317	1742.0952766668
0	4470	368014.075181493574	2302.773476718
0	4477	368528.409645706454	1975.3297307063
0	4486	369227.91937314909	1827.131467592
0	4499	370365.142133273222	2288.2191675715
0	4506	370849.063839018383	2038.7171213049
0	4513	371426.385754672849	1731.4998448826
0	4522	371947.703098459207	1582.560965186
0	4535	373115.611209394447	2198.9427241031
0	4544	373942.725326679684	2167.5652988255
0	4551	374551.595604931973	2031.9109946955
0	4562	375471.027194336094	2355.4159849416
0	4569	375947.881286591329	2005.1559599116
0	4580	376704.695035982915	2043.9859778155
0	4589	377455.444447556549	1984.4172532205
0	4598	378195.047354791352	2145.5496793147
0	4607	378973.292073514351	2268.5970375314
0	4616	379399.122271500566	1943.677823944
0	4623	379876.285071624481	1681.2377168331
0	4630	380475.66071259793	1502.3686390836
0	4639	381459.52247804966	2060.4002065491
0	4648	382189.687590021678	2126.1719446164
0	4659	383361.029652692415	2445.9412073717
0	4666	384064.787544775792	2254.1774346493
0	4675	384867.716378672086	2187.7270148601
0	4684	385391.968795470932	1848.3822447248
0	4693	386253.159119747618	1847.4705386907
0	4702	386905.549159180411	1885.151203908
0	4711	387790.925819054285	1884.0437843464
0	4720	388899.514208408111	2436.1371578649
0	4733	389862.965873116667	2499.9915879685
0	4738	390218.98982366551	2119.9572765268
0	4749	391126.820405339862	2157.1665598545
0	4758	391848.635643068741	1985.6697699521
0	4769	392416.476624598767	1762.3123259749
0	4778	393103.437595255713	1940.749670472
0	4783	393404.78089149114	1540.1897189207
0	4796	394729.841775354038	2313.3651507553
0	4805	395505.666754161979	2402.2291589063
0	4810	396032.324683014343	2079.5371283311
0	4819	396856.244607176672	2126.4028318226
0	4828	397558.357101911719	2052.6903477497
0	4837	398041.140485974069	1689.5792021882
0	4850	398883.462513936724	1674.9986040406
0	4857	399668.57582051311	1762.8925507888
0	4868	400384.461941337253	2036.8654154241
0	4877	401254.995324416126	2371.5328104794
0	4886	402025.224169576581	2261.1350810621
0	4893	402702.050449512939	2317.5885081757
0	4900	403144.611777132417	1889.6164527163
0	4911	403985.461939265993	1960.2377696894
0	4918	404499.029630888295	1656.9741372485
0	4927	404963.008775375825	1620.84445199
0	4940	406277.302673924755	2115.3981237207
0	4945	406631.503125652712	1705.688197352
0	4956	407466.881880210753	1982.0876272861
0	4963	408362.815070617986	2085.5123966932
0	4974	409364.91480250847	2368.4809905477
0	4985	410193.124646600377	2406.9461239502
0	4992	410699.533973727416	2066.9973621145
0	5001	411158.557647792663	1650.7387361024
0	5012	412113.196547236335	1920.071900636
0	5019	412705.834020813969	1927.6095902547
0	5030	413626.935566403013	2176.9574644044
0	5035	414150.928496941965	2037.7319497056
0	5044	414886.141035379883	2086.3777037244
0	5053	415390.078418841627	1763.1428524386
0	5066	416729.076228663368	2265.3936111834
0	5073	417297.034787619529	1967.7857764531
0	5084	418457.322828797666	2470.9335389547
0	5089	418838.010166212959	2108.9339375496
0	5100	419735.849076323254	2132.6981461141
0	5107	420286.929709464354	1829.6068806667
0	5116	421391.407094942448	2269.5492611267
0	5127	422263.040369516281	2249.2100499105
0	5138	422917.890223581386	2095.3913562465
0	5143	423439.546033786652	1904.2939845007
0	5154	424312.717087799726	1968.1714044884
0	5161	424878.371045971332	1960.4808223899
0	5170	425534.999648993877	1859.2553711962
0	5179	426476.34325688709	2037.6476339065
0	5188	426935.590384248686	1607.7693301253
0	5197	427635.431379592088	1729.6642958187
0	5208	428889.267291175243	2301.0258017108
0	5215	429590.467014955398	2143.5422798619
0	5226	430420.720362290782	2322.2268879879
0	5235	431108.585442462978	2154.0829273872
0	5246	431959.917535074097	2147.503926605
0	5251	432347.157285874751	1836.4112660754
0	5260	433171.628901874689	1833.3495154046
0	5273	433831.032074103174	1871.1145390291
0	5282	434441.254698950839	1753.3599968534
0	5289	434999.779449217063	1754.1469625663
0	5298	435937.842462351588	2106.8103882484
0	5305	436368.969375640196	1927.7146766894
0	5314	437257.662601349917	2172.3791592289
0	5327	438239.517012750772	2256.7451453302
0	5336	438789.301077788738	1932.24943229
0	5343	439517.4503162038	1992.1064015944
0	5352	440001.873889518944	1762.3568767682
0	5363	441135.968081932557	2346.6670041438
0	5370	441620.972057757941	1993.742895266
0	5377	442337.130947504234	1896.8103415333
0	5386	442867.216435633641	1731.2483537011
0	5395	443756.564672151622	1731.1204371974
0	5406	444733.041127212387	2253.1206430402
0	5417	445793.129717744929	2498.3634119388
0	5424	446478.487245691982	2294.6427851915
0	5433	447026.830158429262	2015.7569160685
0	5444	447803.503727819812	2010.3740100749
0	5453	448523.628374375444	1875.657176692
0	5460	449356.107038212981	2192.4251327757
0	5469	449960.550518659916	2157.0467908401
0	5480	451009.325460623992	2485.6970862485
0	5485	451467.183028115002	2065.0783267803
0	5498	452597.721108421726	2397.0062909648
0	5505	453127.706419676585	2118.3809590526
0	5512	453697.76023118761	1807.4613969773
0	5521	454251.193300355269	1653.4721919335
0	5532	455143.392909318252	1787.9437410738
0	5541	456000.395297957628	2155.0489190966
0	5548	456337.395827053159	1791.2237605546
0	5559	457458.542332286058	2153.2985210884
0	5566	457978.277074825062	1935.5209414847
0	5579	459137.192679662301	2520.8732397761
0	5584	459493.390609044625	1992.0803714544
0	5597	460429.509249748706	2077.6521602646
0	5604	461132.111736713021	1994.9190570507
0	5611	461478.58435926032	1885.5344626587
0	5620	462256.710640713617	1827.2013909649
0	5629	463103.148205624936	1839.8962077219
0	5638	463675.365736009596	1520.0008001179
0	5651	464862.410330353348	2122.0220174175
0	5658	465519.283003639473	2144.4731166121
0	5665	466395.409662136852	2133.5407623556
0	5676	467354.722018819346	2492.311688466
0	5683	467836.789525346874	2096.7835663352
0	5692	468735.834350064441	2191.6205241345
0	5703	469737.13867622432	2346.1635496002
0	5710	470080.367853026881	1819.5753875189
0	5723	471009.857864957347	1940.603102278
0	5730	471602.522822655782	1808.4952316713
0	5741	472528.235811414241	2351.1393925175
0	5748	472975.299536855935	1965.4416718986
0	5757	473794.816337758719	1999.6022870298
0	5766	474488.227161811709	1959.9913503975
0	5777	475518.891451042189	2408.138907887
0	5784	476158.005400607406	2287.9705741536
0	5791	476563.018794916614	1818.5955603607
0	5800	477058.075664565011	1539.1842135228
0	5811	478109.911562455862	1940.7456403133
0	5818	478690.926800016358	1949.5450949762
0	5827	479083.986573480114	1647.3224092741
0	5836	480302.302813623146	1993.8917268533
0	5845	480942.607625294522	2177.1131539252
0	5856	481980.716372653888	2460.8469315805
0	5867	482793.855503434361	2392.1836605761
0	5876	483675.181944016413	2455.5468784645
0	5885	484537.497057812334	2508.639034722
0	5890	485043.505388125823	2249.6498846915
0	5899	485768.729201518045	2093.5472575016
0	5908	486411.464401753666	1873.9673439413
0	5921	487418.970299419062	2009.1390387621
0	5926	487726.169816404627	1729.1999347508
0	5935	488716.938549606176	1935.5900562834
0	5944	489303.556614182936	1884.5863147639
0	5953	490014.469304261776	1916.7999582365
0	5962	490820.912399422424	1873.1503954623
0	5971	491745.878787059383	1936.0974960029
0	5982	492291.694871150004	1860.0514938589
0	5989	492655.474994983571	1413.35509317
0	6000	493534.136525262194	1763.0876710173
0	6007	494404.12625041795	2057.2672225535
0	6018	495408.485151641117	2309.0176298283
0	6029	496187.419576942967	2194.4642130286
0	6034	496790.044669015379	2012.1860779356
0	6045	497903.567206906201	2465.9302793909
0	6056	498524.252961343201	2336.8333844002
0	6061	499013.714876677888	1943.3201455046
0	6070	499849.115108326124	1917.6103224512
0	6083	500825.02235532743	2300.7693939842
0	6092	501467.23023690288	2229.2439134326
0	6097	501848.747801687615	1786.3192709628
0	6106	502277.644480951178	1452.6221256237
0	6119	503625.506071234169	2158.2758343313
0	6128	504203.562650224241	1976.4684009366
0	6135	504697.8606039193	1740.2261030395
0	6142	505238.770345039713	1613.2642738055
0	6147	505729.769226070541	1526.2065758463
0	6160	506710.397432791116	1844.9517735746
0	6171	507799.525896739262	2061.2319398671
0	6178	508420.670286845463	1783.3609848283
0	6187	508985.119959432679	1804.9384636804
0	6198	509897.135943034711	2067.5424114335
0	6209	510555.816292064312	1884.1600604821
0	6214	511235.097512416589	2107.3139647488
0	6223	511691.237474419225	1680.901201861
0	6236	512855.983857577714	2300.1675655134
0	6245	513651.758301397833	2265.8764590975
0	6254	514322.323463810655	2279.990783846
0	6263	515078.145609190735	2222.161751613
0	6270	515834.866951871711	2183.1086504739
0	6279	516348.449570126879	2026.1261063162
0	6288	517252.639419073286	2174.4938098826
0	6297	518027.002891106578	2109.0668936726
0	6306	518687.919646175625	1901.6421382315
0	6317	519613.480931287679	2162.0420839638
0	6322	520097.308581741574	1984.9201583304
0	6335	520762.13090107781	1960.8758951537
0	6342	521325.835367990706	1712.354436703
0	6349	522232.261035963941	2004.1556137148
0	6362	523024.53050650661	2262.3996054288
0	6369	523484.64766172697	1853.5984230693
0	6380	524690.155737614307	2384.4212866388
0	6389	525327.488633478108	2302.9581269715
0	6394	525758.777434425476	1960.2201210335
0	6407	527015.244545415092	2325.0888078008
0	6412	527463.841498922605	2136.3528654445
0	6421	527971.113761141945	1827.276155306
0	6430	529244.326590746689	2229.0820453316
0	6439	529861.969732632908	2000.2902934793
0	6450	531012.420908454854	2350.9943892248
0	6461	531694.20322361407	2142.7613899112
0	6468	532186.879259347964	1897.0643442124
0	6477	532976.609609043274	1791.7307986412
0	6486	533849.737649783541	2155.5344261695
0	6497	534657.715088920717	2308.7218865287
0	6502	534972.456926805948	1909.4798146281
0	6511	535664.711993560244	1769.2006050143
0	6524	536503.582648281057	1845.8675593603
0	6529	537026.078897249003	1785.6552123092
0	6542	538019.194249855404	1881.3238729723
0	6549	538401.550062652727	1897.9674143717
0	6556	539260.701991198634	1938.8593032025
0	6567	540101.734843617354	2082.5405937619
0	6574	540965.945061994765	2064.6903810091
0	6587	541688.272391678815	2197.9985388927
0	6594	542490.70564568979	2196.1903783958
0	6603	543303.223034413581	2214.5224662032
0	6610	543897.232891386425	2208.9604997076
0	6623	544919.376461952975	2347.1681761555
0	6632	545770.466460613584	2346.0477151908
0	6637	546236.62073398014	1990.5448290054
0	6646	546825.762476585855	1906.3860146329
0	6657	547538.894072966701	1768.4276123531
0	6664	548074.215018935552	1686.8146369234
0	6675	549229.618094489029	2110.1792254485
0	6682	550015.721488790637	2274.7322056442
0	6695	551166.533197229778	2562.2904403601
0	6704	552046.042597247338	2545.5849719234
0	6713	552761.210982548123	2368.4060602449
0	6722	553649.858865374749	2483.325668145
0	6727	554114.202902745505	2068.1603054982
0	6738	554996.109069977005	2234.8980874289
0	6745	555760.105062928101	2110.2461975534
0	6756	556449.64142628019	2071.1666216142
0	6763	556865.937543986414	1602.253752714
0	6776	558220.485777827029	2188.7944485527
0	6785	559109.366076998462	2397.9227523319
0	6790	559500.685678096538	2090.2155285235
0	6799	560077.163236727987	1856.677458901
0	6808	560991.82410123763	1882.4580242392
0	6817	562205.698317848196	2210.4405493476
0	6828	562746.466990420645	2130.3076019045
0	6839	563531.419115513613	2091.2388456054
0	6848	564423.355460772341	2088.9873022679
0	6857	565294.380169780975	2533.4035168402
0	6866	566120.623524393936	2589.2044088803
0	6875	566950.811213627507	2527.4557528552
0	6884	567601.492768200164	2307.1125984192
0	6891	568196.188926743393	2075.5654023495
0	6898	568659.078433457812	1708.2672198303
0	6907	569313.732666475748	1712.2398982756
0	6916	569874.969477485916	1659.1735906899
0	6929	571341.749289538762	2390.8438753802
0	6936	571896.147579141012	2223.099540174
0	6945	572870.130129391379	2381.7799104843
0	6954	573622.432926949165	2280.6836374104
0	6965	574430.416293349169	2340.7010728028
0	6974	575294.705467997171	2331.4966084901
0	6979	575947.679644217767	2181.2605496496
0	6990	576829.701842553966	2399.2855492048
0	6999	577595.007604407199	2300.30213641
0	7008	578347.539818845742	2275.4423580598
0	7017	579175.034201983415	2298.222625209
0	7028	579876.180852111482	2103.4800601657
0	7037	580346.634135441908	1973.6164466478
0	7046	580918.57292032806	1701.3205552474
0	7051	581281.904317578355	1405.7234654669
0	7064	582332.788765803033	1986.1546303611
0	7071	583042.687153257483	2124.1142329294
0	7082	583729.284454090574	2144.2359389272
0	7091	584557.307844283113	2224.5190784801
0	7096	584903.682815283591	1692.3397372942
0	7105	585534.93278534157	1805.648331251
0	7114	586385.715976590344	1828.4081323072
0	7123	587025.476971222141	1569.5233079139
0	7132	587678.739721560904	1743.3174228296
0	7145	588950.168893206919	2172.0781273674
0	7150	589282.142992643694	1740.7109890133
0	7163	590548.031574860269	2225.9632584639
0	7170	591278.757716249728	2328.5888230428
0	7177	591790.876253508085	2109.9730325863
0	7188	592940.225212974528	2392.1936381143
0	7195	593303.400375880355	1893.4102612082
0	7208	594485.889948299209	2355.1109557506
0	7217	595299.208616651649	2323.752584355
0	7224	596128.816907107884	2527.7617871761
0	7233	596871.86497128574	2385.9750229865
0	7240	597600.051802536527	2300.8431858849
0	7253	598529.582947399523	2343.8644717913
0	7262	599363.915009843241	2377.1960022859
0	7267	599901.674281759243	2160.7439281885
0	7276	600328.02035794599	1798.4374105465
0	7285	600895.161753846388	1531.2467440031
0	7296	601675.941676134299	1569.0117171966
0	7303	602722.503480780925	1927.5758544914
0	7314	603553.141714911964	2217.1401595697
0	7323	604378.06866089819	2227.0201242529
1	3140	260021.184841822862	347
1	3149	260769.397154683276	348
1	3156	261514.336560945987	349
1	3163	261857.425758428901	350
1	3172	262569.14299330677	351
1	3183	263709.33205531913	352
1	3192	264419.504259293928	353
1	3203	265313.019896205544	354
1	3208	265786.75540597181	355
1	3217	266439.868690352916	356
1	3228	267413.508458761527	357
1	3237	268292.650100542261	358
1	3246	269111.99713423851	359
1	3253	269456.083490001066	360
1	3262	270324.973956635251	361
1	3273	271337.049117498129	362
1	3284	272202.100737439498	363
1	3289	272625.582127366245	364
1	3302	273361.066091526329	365
1	3311	274210.058259917452	366
1	3318	274749.376764614164	367
1	3329	275403.153072763264	368
1	3338	276200.711135286868	369
1	3347	276999.01258754547	370
1	3356	277818.262404436276	371
1	3363	278437.492841295928	372
1	3372	279169.769697496698	373
1	3379	279865.857839584381	374
1	3392	280735.010486142741	375
1	3401	281369.846526766227	376
1	3410	282078.605116065623	377
1	3415	282535.380563512476	378
1	3424	283218.070853641288	379
1	3433	284249.905808782236	380
1	3442	284781.451964797484	381
1	3453	286123.798100324379	382
1	3462	286825.659277802365	383
1	3469	287193.871337268533	384
1	3482	288498.311834642696	385
1	3487	289172.214652877333	386
1	3496	289725.18971138637	387
1	3509	290935.791045147958	388
1	3516	291467.271328065577	389
1	3523	292202.267451630938	390
1	3532	292905.060958396676	391
1	3541	293778.830764303016	392
1	3552	294531.584233185309	393
1	3559	295314.784066379103	394
1	3568	295754.049583990159	395
1	3579	296350.684313010457	396
1	3586	296796.808668645131	397
1	3597	297877.096403902429	398
1	3604	298395.730334892901	399
1	3613	299274.376327917013	400
1	3624	300238.376431167159	401
1	3631	300669.291772786561	402
1	3636	301309.23004522923	403
1	3651	302648.660198086907	404
1	3658	303067.932153353502	405
1	3669	304432.450801134144	406
1	3680	305104.711426282335	407
1	3687	305846.298473188687	408
1	3696	306421.619434095953	409
1	3703	307243.859988916699	410
1	3714	307979.194387234781	411
1	3725	308821.34218225259	412
1	3732	309537.558532739092	413
1	3739	309950.586637062986	414
1	3748	310582.492376491462	415
1	3757	311242.400360712815	416
1	3768	312130.409913696383	417
1	3777	312947.967284917866	418
1	3784	313702.361989254167	419
1	3795	314520.712106768076	420
1	3802	315151.054119458456	421
1	3815	316254.782316321541	422
1	3820	316608.522955421392	423
1	3833	317816.950603388284	424
1	3838	318272.958820452948	425
1	3851	319346.880001388524	426
1	3856	319815.052132448215	427
1	3867	320347.607037378509	428
1	3878	321244.313795585219	429
1	3887	322022.826868901063	430
1	3896	322749.965049745549	431
1	3903	323132.730937516351	432
1	3912	324005.735347420011	433
1	3919	324605.938201071728	434
1	3930	325395.601849118282	435
1	3939	326211.653679516201	436
1	3950	327065.081231156398	437
1	3957	327499.627804476802	438
1	3964	327948.048205347766	439
1	3973	328523.022360121866	440
1	3982	329542.5531829242	441
1	3995	330483.971031149883	442
1	4004	331132.39683019932	443
1	4013	331814.014395978335	444
1	4020	332463.705134298686	445
1	4027	333042.985179321874	446
1	4040	333881.947598280418	447
1	4049	334723.467110982198	448
1	4058	335281.573636690188	449
1	4065	335936.367330327663	450
1	4072	336399.056847067583	451
1	4083	337330.482852878082	452
1	4094	338167.659943085197	453
1	4103	338954.006977938149	454
1	4108	339332.85696068782	455
1	4121	340369.711828138713	456
1	4126	340929.948809696395	457
1	4137	341668.174885120277	458
1	4144	342195.708274282549	459
1	4157	343426.425415976007	460
1	4166	344154.035748867352	461
1	4173	344878.312145406414	462
1	4180	345302.245620125939	463
1	4191	345997.140199737658	464
1	4198	346339.685301762108	465
1	4207	346704.569846391712	466
1	4216	347749.221553048153	467
1	4227	348757.805889146437	468
1	4236	349471.000896999647	469
1	4243	349830.188857158681	470
1	4254	350596.145209483837	471
1	4261	351550.939983408934	472
1	4274	352684.264416201076	473
1	4279	353277.601825073397	474
1	4290	354325.797657994589	475
1	4301	355027.648166986218	476
1	4310	355785.564781073517	477
1	4319	356230.01091862101	478
1	4328	357088.24102724906	479
1	4335	357839.703838946335	480
1	4344	358619.352333527095	481
1	4353	359503.122797096184	482
1	4360	359945.363145181945	483
1	4373	360918.927349336482	484
1	4378	361399.357515340708	485
1	4389	362117.380958190225	486
1	4396	362482.704322552346	487
1	4409	363262.091005733274	488
1	4418	364020.278845354952	489
1	4425	364444.03950157579	490
1	4432	365039.829030912406	491
1	4441	365574.244176596441	492
1	4452	366306.471438612827	493
1	4459	367005.55196162317	494
1	4470	368014.075181493574	495
1	4477	368528.409645706454	496
1	4486	369227.91937314909	497
1	4499	370365.142133273222	498
1	4506	370849.063839018383	499
1	4513	371426.385754672849	500
1	4522	371947.703098459207	501
1	4535	373115.611209394447	502
1	4544	373942.725326679684	503
1	4551	374551.595604931973	504
1	4562	375471.027194336094	505
1	4569	375947.881286591329	506
1	4580	376704.695035982915	507
1	4589	377455.444447556549	508
1	4598	378195.047354791352	509
1	4607	378973.292073514351	510
1	4616	379399.122271500566	511
1	4623	379876.285071624481	512
1	4630	380475.66071259793	513
1	4639	381459.52247804966	514
1	4648	382189.687590021678	515
1	4659	383361.029652692415	516
1	4666	384064.787544775792	517
1	4675	384867.716378672086	518
1	4684	385391.968795470932	519
1	4693	386253.159119747618	520
1	4702	386905.549159180411	521
1	4711	387790.925819054285	522
1	4720	388899.514208408111	523
1	4733	389862.965873116667	524
1	4738	390218.98982366551	525
1	4749	391126.820405339862	526
1	4758	391848.635643068741	527
1	4769	392416.476624598767	528
1	4778	393103.437595255713	529
1	4783	393404.78089149114	530
1	4796	394729.841775354038	531
1	4805	395505.666754161979	532
1	4810	396032.324683014343	533
1	4819	396856.244607176672	534
1	4828	397558.357101911719	535
1	4837	398041.140485974069	536
1	4850	398883.462513936724	537
1	4857	399668.57582051311	538
1	4868	400384.461941337253	539
1	4877	401254.995324416126	540
1	4886	402025.224169576581	541
1	4893	402702.050449512939	542
1	4900	403144.611777132417	543
1	4911	403985.461939265993	544
1	4918	404499.029630888295	545
1	4927	404963.008775375825	546
1	4940	406277.302673924755	547
1	4945	406631.503125652712	548
1	4956	407466.881880210753	549
1	4963	408362.815070617986	550
1	4974	409364.91480250847	551
1	4985	410193.124646600377	552
1	4992	410699.533973727416	553
1	5001	411158.557647792663	554
1	5012	412113.196547236335	555
1	5019	412705.834020813969	556
1	5030	413626.935566403013	557
1	5035	414150.928496941965	558
1	5044	414886.141035379883	559
1	5053	415390.078418841627	560
1	5066	416729.076228663368	561
1	5073	417297.034787619529	562
1	5084	418457.322828797666	563
1	5089	418838.010166212959	564
1	5100	419735.849076323254	565
1	5107	420286.929709464354	566
1	5116	421391.407094942448	567
1	5127	422263.040369516281	568
1	5138	422917.890223581386	569
1	5143	423439.546033786652	570
1	5154	424312.717087799726	571
1	5161	424878.371045971332	572
1	5170	425534.999648993877	573
1	5179	426476.34325688709	574
1	5188	426935.590384248686	575
1	5197	427635.431379592088	576
1	5208	428889.267291175243	577
1	5215	429590.467014955398	578
1	5226	430420.720362290782	579
1	5235	431108.585442462978	580
1	5246	431959.917535074097	581
1	5251	432347.157285874751	582
1	5260	433171.628901874689	583
1	5273	433831.032074103174	584
1	5282	434441.254698950839	585
1	5289	434999.779449217063	586
1	5298	435937.842462351588	587
1	5305	436368.969375640196	588
1	5314	437257.662601349917	589
1	5327	438239.517012750772	590
1	5336	438789.301077788738	591
1	5343	439517.4503162038	592
1	5352	440001.873889518944	593
1	5363	441135.968081932557	594
1	5370	441620.972057757941	595
1	5377	442337.130947504234	596
1	5386	442867.216435633641	597
1	5395	443756.564672151622	598
1	5406	444733.041127212387	599
1	5417	445793.129717744929	600
1	5424	446478.487245691982	601
1	5433	447026.830158429262	602
1	5444	447803.503727819812	603
1	5453	448523.628374375444	604
1	5460	449356.107038212981	605
1	5469	449960.550518659916	606
1	5480	451009.325460623992	607
1	5485	451467.183028115002	608
1	5498	452597.721108421726	609
1	5505	453127.706419676585	610
1	5512	453697.76023118761	611
1	5521	454251.193300355269	612
1	5532	455143.392909318252	613
1	5541	456000.395297957628	614
1	5548	456337.395827053159	615
1	5559	457458.542332286058	616
1	5566	457978.277074825062	617
1	5579	459137.192679662301	618
1	5584	459493.390609044625	619
1	5597	460429.509249748706	620
1	5604	461132.111736713021	621
1	5611	461478.58435926032	622
1	5620	462256.710640713617	623
1	5629	463103.148205624936	624
1	5638	463675.365736009596	625
1	5651	464862.410330353348	626
1	5658	465519.283003639473	627
1	5665	466395.409662136852	628
1	5676	467354.722018819346	629
1	5683	467836.789525346874	630
1	5692	468735.834350064441	631
1	5703	469737.13867622432	632
1	5710	470080.367853026881	633
1	5723	471009.857864957347	634
1	5730	471602.522822655782	635
1	5741	472528.235811414241	636
1	5748	472975.299536855935	637
1	5757	473794.816337758719	638
1	5766	474488.227161811709	639
1	5777	475518.891451042189	640
1	5784	476158.005400607406	641
1	5791	476563.018794916614	642
1	5800	477058.075664565011	643
1	5811	478109.911562455862	644
1	5818	478690.926800016358	645
1	5827	479083.986573480114	646
1	5836	480302.302813623146	647
1	5845	480942.607625294522	648
1	5856	481980.716372653888	649
1	5867	482793.855503434361	650
1	5876	483675.181944016413	651
1	5885	484537.497057812334	652
1	5890	485043.505388125823	653
1	5899	485768.729201518045	654
1	5908	486411.464401753666	655
1	5921	487418.970299419062	656
1	5926	487726.169816404627	657
1	5935	488716.938549606176	658
1	5944	489303.556614182936	659
1	5953	490014.469304261776	660
1	5962	490820.912399422424	661
1	5971	491745.878787059383	662
1	5982	492291.694871150004	663
1	5989	492655.474994983571	664
1	6000	493534.136525262194	665
1	6007	494404.12625041795	666
1	6018	495408.485151641117	667
1	6029	496187.419576942967	668
1	6034	496790.044669015379	669
1	6045	497903.567206906201	670
1	6056	498524.252961343201	671
1	6061	499013.714876677888	672
1	6070	499849.115108326124	673
1	6083	500825.02235532743	674
1	6092	501467.23023690288	675
1	6097	501848.747801687615	676
1	6106	502277.644480951178	677
1	6119	503625.506071234169	678
1	6128	504203.562650224241	679
1	6135	504697.8606039193	680
1	6142	505238.770345039713	681
1	6147	505729.769226070541	682
1	6160	506710.397432791116	683
1	6171	507799.525896739262	684
1	6178	508420.670286845463	685
1	6187	508985.119959432679	686
1	6198	509897.135943034711	687
1	6209	510555.816292064312	688
1	6214	511235.097512416589	689
1	6223	511691.237474419225	690
1	6236	512855.983857577714	691
1	6245	513651.758301397833	692
1	6254	514322.323463810655	693
1	6263	515078.145609190735	694
1	6270	515834.866951871711	695
1	6279	516348.449570126879	696
1	6288	517252.639419073286	697
1	6297	518027.002891106578	698
1	6306	518687.919646175625	699
1	6317	519613.480931287679	700
1	6322	520097.308581741574	701
1	6335	520762.13090107781	702
1	6342	521325.835367990706	703
1	6349	522232.261035963941	704
1	6362	523024.53050650661	705
1	6369	523484.64766172697	706
1	6380	524690.155737614307	707
1	6389	525327.488633478108	708
1	6394	525758.777434425476	709
1	6407	527015.244545415092	710
1	6412	527463.841498922605	711
1	6421	527971.113761141945	712
1	6430	529244.326590746689	713
1	6439	529861.969732632908	714
1	6450	531012.420908454854	715
1	6461	531694.20322361407	716
1	6468	532186.879259347964	717
1	6477	532976.609609043274	718
1	6486	533849.737649783541	719
1	6497	534657.715088920717	720
1	6502	534972.456926805948	721
1	6511	535664.711993560244	722
1	6524	536503.582648281057	723
1	6529	537026.078897249003	724
1	6542	538019.194249855404	725
1	6549	538401.550062652727	726
1	6556	539260.701991198634	727
1	6567	540101.734843617354	728
1	6574	540965.945061994765	729
1	6587	541688.272391678815	730
1	6594	542490.70564568979	731
1	6603	543303.223034413581	732
1	6610	543897.232891386425	733
1	6623	544919.376461952975	734
1	6632	545770.466460613584	735
1	6637	546236.62073398014	736
1	6646	546825.762476585855	737
1	6657	547538.894072966701	738
1	6664	548074.215018935552	739
1	6675	549229.618094489029	740
1	6682	550015.721488790637	741
1	6695	551166.533197229778	742
1	6704	552046.042597247338	743
1	6713	552761.210982548123	744
1	6722	553649.858865374749	745
1	6727	554114.202902745505	746
1	6738	554996.109069977005	747
1	6745	555760.105062928101	748
1	6756	556449.64142628019	749
1	6763	556865.937543986414	750
1	6776	558220.485777827029	751
1	6785	559109.366076998462	752
1	6790	559500.685678096538	753
1	6799	560077.163236727987	754
1	6808	560991.82410123763	755
1	6817	562205.698317848196	756
1	6828	562746.466990420645	757
1	6839	563531.419115513613	758
1	6848	564423.355460772341	759
1	6857	565294.380169780975	760
1	6866	566120.623524393936	761
1	6875	566950.811213627507	762
1	6884	567601.492768200164	763
1	6891	568196.188926743393	764
1	6898	568659.078433457812	765
1	6907	569313.732666475748	766
1	6916	569874.969477485916	767
1	6929	571341.749289538762	768
1	6936	571896.147579141012	769
1	6945	572870.130129391379	770
1	6954	573622.432926949165	771
1	6965	574430.416293349169	772
1	6974	575294.705467997171	773
1	6979	575947.679644217767	774
1	6990	576829.701842553966	775
1	6999	577595.007604407199	776
1	7008	578347.539818845742	777
1	7017	579175.034201983415	778
1	7028	579876.180852111482	779
1	7037	580346.634135441908	780
1	7046	580918.57292032806	781
1	7051	581281.904317578355	782
1	7064	582332.788765803033	783
1	7071	583042.687153257483	784
1	7082	583729.284454090574	785
1	7091	584557.307844283113	786
1	7096	584903.682815283591	787
1	7105	585534.93278534157	788
1	7114	586385.715976590344	789
1	7123	587025.476971222141	790
1	7132	587678.739721560904	791
1	7145	588950.168893206919	792
1	7150	589282.142992643694	793
1	7163	590548.031574860269	794
1	7170	591278.757716249728	795
1	7177	591790.876253508085	796
1	7188	592940.225212974528	797
1	7195	593303.400375880355	798
1	7208	594485.889948299209	799
1	7217	595299.208616651649	800
1	7224	596128.816907107884	801
1	7233	596871.86497128574	802
1	7240	597600.051802536527	803
1	7253	598529.582947399523	804
1	7262	599363.915009843241	805
1	7267	599901.674281759243	806
1	7276	600328.02035794599	807
1	7285	600895.161753846388	808
1	7296	601675.941676134299	809
1	7303	602722.503480780925	810
1	7314	603553.141714911964	811
1	7323	604378.06866089819	812

