version 2
run Pipelined_3Teachers-79-20190105-10:57:35-27016
attr configname Pipelined_3Teachers
attr datetime 20190105-10:57:35
attr experiment Pipelined_3Teachers
attr inifile ../simulations/omnetpp.ini
attr iterationvars "$0=\"uniform\""
attr iterationvarsf uniform-
attr measurement "$0=\"uniform\""
attr network PipelinedExamSession
attr processid 27016
attr repetition 79
attr replication #79
attr resultdir results
attr runnumber 79
attr seedset 79
param **.teachersNumber 3
param **.answerTimeDistribution "\"uniform\""
param **.minUniform 300
param **.maxUniform 900
param **.scaleLognormal 6.2854
param **.shapeLognormal 0.4724

vector 0 PipelinedExamSession examinationTime:vector ETV
attr source examFinished
vector 1 PipelinedExamSession studentID:vector ETV
attr source student
0	3165	260968.015481717915	2418.3088162914
0	3176	261806.461431691454	2372.8659415618
0	3185	262484.771265042977	2220.9251349326
0	3190	262785.893916478412	1648.3980731573
0	3203	263670.113129960405	1863.651698269
0	3210	264471.519727679002	1986.748462636
0	3221	265304.206589749115	2304.1850875597
0	3228	265815.211419621515	2145.0982896611
0	3235	266557.326144073191	2049.6458651964
0	3244	267319.542253855648	2015.3356641065
0	3257	268419.236921332809	2397.2960575484
0	3264	269089.200367871704	2311.7196588311
0	3273	269727.222550381007	2166.5114090312
0	3284	270465.238654520395	2046.0017331876
0	3291	271217.865970311719	2073.7663711421
0	3302	271976.87975401062	2217.8056164645
0	3311	272835.169651592182	2369.9309970718
0	3316	273154.000227386164	1875.5239679944
0	3327	274263.132405281098	2286.2526512705
0	3336	274763.261329382689	1928.0916777905
0	3343	275480.640581063957	1985.2129264735
0	3352	276283.443238958748	1920.4284933396
0	3361	276896.712380228596	1817.9438953288
0	3370	278031.286711106108	2156.8652722053
0	3381	278995.674760406869	2229.9698562361
0	3388	279601.931388722765	2090.5373185873
0	3399	280703.268100367891	2387.2527379543
0	3410	281359.570649312841	2172.1296797041
0	3417	282122.879459895226	2258.2970371004
0	3426	282749.379445798727	1986.9648850523
0	3437	283308.106286544384	1948.5356372315
0	3444	284012.940041022407	1828.1359777786
0	3453	284877.040915098073	2017.4886966124
0	3460	285197.210396546902	1889.1041100025
0	3469	286190.86796063933	2043.9957969356
0	3478	286714.948414871501	1676.1420643888
0	3491	288062.631403561714	2200.5110527854
0	3498	288908.663492230731	2341.1992030218
0	3509	289719.103918969663	2495.508003328
0	3518	290431.328607397186	2368.6972038355
0	3523	290830.797178158569	1879.0529939812
0	3532	291679.945435607838	1960.8415166382
0	3541	292183.478935947674	1752.1503285505
0	3550	292996.406186325508	1795.907078404
0	3559	293546.78314123306	1489.1324173193
0	3572	295157.70838740285	2573.0717595667
0	3581	295721.29442766312	2277.392460499
0	3590	296189.556901110368	1857.6956437435
0	3597	296755.805299803646	1598.0969124008
0	3604	297345.856563560696	1624.5621358976
0	3617	298566.46809903908	2376.9111979287
0	3626	299313.190036034244	2288.1899815053
0	3635	300056.270276382598	2308.6931833997
0	3640	300628.713445644858	2062.2453466058
0	3651	301457.562798913601	2144.3727628794
0	3658	302262.213315255973	2205.9430388734
0	3669	303120.655904570627	2298.5604453832
0	3676	303566.334168892386	1855.76361157
0	3685	304552.833960251916	2089.6822166629
0	3696	305351.092934142832	2063.4876758326
0	3705	305983.72053005736	1893.9607326407
0	3714	306628.749093459953	1954.5375606045
0	3725	307505.999374715646	2139.2402663827
0	3734	308401.582214701955	2359.5854271669
0	3741	308848.061014758457	2151.3206329197
0	3748	309715.531866950948	2209.5324922353
0	3761	310553.138820407946	2151.556605706
0	3770	311447.430924279649	2305.7628823444
0	3779	312199.552737688679	2368.2644081768
0	3784	312599.854936217923	2046.71611581
0	3793	313362.525061285156	1915.0941370055
0	3806	314529.802299477193	2330.2495617885
0	3811	315033.958298200774	2103.424975276
0	3816	315368.285915209013	1676.7749623396
0	3829	316664.089120924506	2134.2868214473
0	3838	317649.061468429897	2262.38801172
0	3847	318184.33066774163	2082.1297722403
0	3858	319471.215575980056	2524.5305692311
0	3869	320134.534593997557	2337.1682970319
0	3876	320752.032803976942	2143.0469102226
0	3887	321874.78138385344	2394.5411961526
0	3892	322328.15854470249	2193.6239507049
0	3903	323181.721533788402	2194.9914508034
0	3910	323503.129077376832	1628.3476935234
0	3919	324614.044965477695	2009.2539293692
0	3932	325995.756839588319	2581.0762843117
0	3939	326717.95381950218	2462.0146131143
0	3950	327587.881915178184	2445.4215198755
0	3959	328419.196191290428	2423.4393517021
0	3966	329016.088391421397	2222.5942244288
0	3975	329604.32715620849	2016.4452410303
0	3984	330199.018705403467	1779.822514113
0	3991	330628.940786747297	1428.7800036371
0	4002	331524.464123323594	1905.7683039922
0	4013	332489.441082067822	2197.5557198748
0	4020	333292.308273213019	2389.6472708322
0	4027	333667.791505996173	2019.2669827491
0	4040	334770.720021938939	2281.2789398711
0	4045	335242.596747726236	1909.9240091164
0	4058	336315.207708114792	2233.0634539481
0	4067	336937.955954577808	2167.2359326389
0	4076	337736.766705522348	2112.8380053677
0	4081	338239.786414057051	1924.5787059423
0	4090	338653.462742362206	1715.5067877844
0	4099	339485.581583669443	1748.8148781471
0	4110	340418.456938723136	2112.3626943212
0	4117	340800.977200269733	1769.0817258786
0	4130	342190.735139977221	2299.6981546283
0	4137	342979.497226187993	2540.8988913987
0	4146	343484.362986590747	2172.8443468921
0	4157	344329.507511621375	2138.7723716442
0	4166	345148.28711911108	2123.3794578351
0	4173	345557.42796720009	1991.1787769292
0	4180	346138.909403700416	1809.401892079
0	4189	346967.216248344663	1818.9291292336
0	4198	347680.142588680643	1782.5545923784
0	4207	348122.030227119136	1523.6539222766
0	4216	348802.624158421565	1467.3876809422
0	4225	349297.599166911128	1476.8224826083
0	4236	350521.245818305794	2102.2739091888
0	4245	351306.096552545238	2302.9584975913
0	4254	351973.054904770139	2278.7131670862
0	4263	352577.271346701342	2020.1512686443
0	4272	353411.739756446365	2033.0735956784
0	4279	354161.218402627889	2041.0018061288
0	4288	354717.318663233924	1810.0101001561
0	4299	356344.718344369936	2549.7299468145
0	4310	357128.15906046893	2467.3590879422
0	4315	357565.963296219739	2009.5724824816
0	4324	358106.457450147752	1756.322392216
0	4333	358737.691541388664	1609.5324809197
0	4346	360091.429068474133	2197.425429197
0	4355	360925.968741299619	2325.4980986472
0	4364	361631.223674817045	2215.647940943
0	4373	362454.177676979487	2362.7486085054
0	4380	363130.654502520372	2204.6857612208
0	4389	363840.891352482174	2209.6676776651
0	4398	364586.235193396022	2132.0575164165
0	4407	365094.237274909427	1933.6999897845
0	4416	365617.884136643296	1642.9842302576
0	4423	366506.462009623682	1857.7186534647
0	4432	367131.552026281168	2025.6686687004
0	4443	367979.525452293491	2058.7337412871
0	4450	368848.811818147114	2041.2653555162
0	4463	369963.12613226477	2398.5041365027
0	4468	370383.098314935378	1990.7407010905
0	4477	371066.102339979298	1912.4842090532
0	4486	371531.212043948509	1568.0859116837
0	4499	372985.317810578309	2147.6992102806
0	4506	373326.315435720645	2063.417037623
0	4515	374282.949765119739	2136.5098643582
0	4526	375119.449801510237	2134.1319909319
0	4533	375839.412680966817	2126.4241982717
0	4540	376219.25451471474	1612.0697479695
0	4549	376999.63863068264	1880.1888291724
0	4562	378545.464848540761	2616.1905598361
0	4567	379073.093129228838	2261.8430559989
0	4576	379728.099027648606	2049.3913107086
0	4589	380717.973856162318	2172.5090076216
0	4594	381167.877852357962	1765.8859130926
0	4603	381928.381041577124	1759.6398199908
0	4616	383131.880396325179	2413.9065401629
0	4625	383993.601418565997	2482.3227548506
0	4632	384633.100114110896	2371.4364828542
0	4643	385484.481902327427	2352.6015060022
0	4648	385928.993391478473	1935.3919729125
0	4657	386570.919078681657	1836.4730393048
0	4668	387330.447485670486	1845.9655833431
0	4679	388612.118027871513	2296.8857200351
0	4684	389151.080453256184	2224.2879335303
0	4697	389911.265387618952	2191.9580840506
0	4706	390591.669489070811	1979.5514611993
0	4711	390903.920333460011	1554.5927822124
0	4720	391781.450119894036	1870.1847322751
0	4731	392775.755957420954	2184.0864683501
0	4742	393553.953606588804	2099.1617915221
0	4747	393971.30543310199	1725.1478854101
0	4756	394919.26322118383	2018.601392163
0	4765	395535.384709294924	1981.4311027061
0	4774	396156.616854155474	1737.8236938268
0	4783	396552.571088355073	1476.2229045387
0	4792	397339.006332121828	1433.9685217012
0	4801	397994.10315910358	1612.5337420497
0	4814	399080.235092109107	1963.313860679
0	4823	399952.802299987563	2154.1198618244
0	4832	400669.574333215171	2429.1904847603
0	4839	401349.471613531971	2269.2365214229
0	4846	401797.376513527745	1844.5742135402
0	4855	402832.543523842508	2162.9691906273
0	4866	403512.114483118097	2092.9129787721
0	4873	404371.455967286641	2152.2677122615
0	4884	405162.145801959598	2191.122641461
0	4895	405884.934788988942	2220.9684676956
0	4900	406221.459349617401	1732.2055708151
0	4913	407309.053815063128	2045.1461460907
0	4918	407657.860205741638	1772.9254167527
0	4931	408936.731061525682	2455.4109798744
0	4938	409566.760025080333	2257.7062100172
0	4945	410148.794215545098	2033.7800360285
0	4954	410878.911984013433	1942.1809224878
0	4959	411374.502515606621	1662.8452906385
0	4976	412800.553850457111	2221.7324547004
0	4981	413122.80232454654	1679.8984827474
0	4990	413990.739195188546	1863.6393877678
0	5003	414823.476225743109	2022.922375286
0	5008	415283.836894389281	1785.9273193404
0	5017	416177.93800625954	2020.4191274475
0	5026	416719.482688559258	1896.0064628161
0	5035	417481.799553846979	1832.9958669841
0	5044	418547.203471837604	2154.724231828
0	5053	418922.554200701455	1755.0660910551
0	5066	420116.472228337118	2055.2107307129
0	5075	420821.468056691849	2000.4173942842
0	5082	421452.468784712294	2031.7704976536
0	5093	422379.46155918766	2262.9893308505
0	5102	423272.953106928656	2451.4850502368
0	5111	423969.75807971325	2350.4553120118
0	5120	424731.261724373365	2351.8001651857
0	5125	425199.501655949319	1926.5485490207
0	5138	426076.679968088905	2106.9218883757
0	5147	426975.424787309061	2244.1630629357
0	5154	427667.907681874971	2221.504141856
0	5163	428208.729302790056	2132.0493347012
0	5172	428968.92645182092	1993.5016645119
0	5183	429765.960192773531	2020.7853849046
0	5190	430408.570695156271	2176.7815240659
0	5199	430995.61956692491	1899.8713277746
0	5206	431357.740407949354	1591.7802151758
0	5219	432718.093677330802	2107.3091279715
0	5226	433401.313854474614	2073.5119481105
0	5237	434376.252466114278	2245.6488509662
0	5244	434724.463262222747	2006.3695848919
0	5247	435060.470456443767	1515.9890206531
0	5262	436043.99115066048	1667.7386845462
0	5271	436804.705201461951	1689.7762540262
0	5280	437491.564286593388	1760.594503535
0	5291	438393.644702900241	2251.2252033222
0	5300	438997.045813780318	1994.8877218645
0	5307	439597.395041864405	2049.5671212673
0	5316	440288.108015852089	1894.4633129518
0	5323	440861.627393262501	1864.5815794822
0	5332	441268.683752557304	1588.4954600595
0	5341	442331.067082006525	2036.7405935191
0	5350	443210.573075339238	2046.7096980661
0	5363	444005.771776428486	2024.3506440427
0	5370	444539.701938908587	1769.8808210436
0	5381	445670.825594337697	2411.3206523471
0	5388	446370.038346201221	2364.2665697727
0	5395	447035.16421043318	2259.9136458244
0	5406	447883.283914905081	2212.4583205674
0	5415	448632.121987547765	2244.7155647445
0	5424	449115.860993647987	1994.6006926708
0	5431	449925.197827722917	2024.7745315544
0	5444	450862.903123162727	2172.25787309
0	5449	451240.596430935006	1738.2126669399
0	5460	452399.59481949922	2260.9669885598
0	5467	452857.617160957347	1994.7140377946
0	5478	453843.972507538314	2152.2198134568
0	5487	454417.482551839243	1982.6713759918
0	5498	455398.021322954486	2134.3573861755
0	5507	455954.995631519745	2069.0955174621
0	5514	456594.700101669918	2084.8066248
0	5521	456951.581154903437	1553.559831949
0	5530	457959.03083360758	2004.0352020878
0	5541	459056.772295944433	2314.721224783
0	5550	460075.097881257574	2485.9958569519
0	5559	460658.473651623393	2197.7867843583
0	5566	461129.701013909692	1843.1571736
0	5575	461568.758892919908	1464.8639068007
0	5586	462700.011007301548	1819.0500073135
0	5597	463515.300341974983	2249.3318323977
0	5604	464066.339033469597	1901.57985189
0	5611	464419.888383010442	1446.3938277215
0	5620	465386.365355271885	1871.0650132969
0	5629	466301.52593110692	1911.8997119833
0	5640	467157.181176776105	2020.5878678709
0	5647	467664.199580065945	1983.8833149523
0	5656	468290.546547621528	1864.9077591486
0	5669	469358.290152344892	2189.6474524867
0	5674	469679.258849518413	1685.0163971074
0	5683	470721.966925263444	2123.6213577446
0	5694	471497.841747198294	2139.5515948534
0	5703	472322.258206503505	2233.7192208041
0	5710	473402.978450199629	2425.6511574145
0	5719	474110.117576178203	2333.3130056038
0	5730	474878.406127262901	2239.1198091209
0	5739	475468.61880091023	1981.1230975203
0	5742	475770.511065004434	1433.8641833514
0	5751	476453.384532267268	1483.3392660599
0	5768	477997.893059765962	2176.8788189627
0	5777	478836.911370931235	2265.4121885542
0	5784	479480.339630367276	2381.7210883833
0	5791	480003.593817399856	2005.7007576339
0	5802	480885.613186983434	2048.7018160522
0	5809	481636.29885306586	2021.2142050266
0	5820	482353.663671948058	1942.526555853
0	5827	483053.148193890271	1835.4967150837
0	5838	484161.447460111273	2211.6081424523
0	5849	484907.337156403852	2438.3055539802
0	5854	485636.248768167613	2324.5545324404
0	5865	486374.805148690981	2185.1708005182
0	5876	487215.542299440173	2308.2051430363
0	5881	487612.526578316507	1920.6115391571
0	5892	488187.617147946773	1781.7844635341
0	5899	489120.672560250429	1905.1302608103
0	5912	490304.307389119683	2460.1419176906
0	5919	490994.553986052094	2254.9216539133
0	5930	491702.236061962364	2114.1782356426
0	5939	492494.343437533868	2190.0360484142
0	5946	492913.539663283197	1711.580765387
0	5955	493413.454873859925	1711.2188118976
0	5964	494322.644278407139	1828.3008408733
0	5975	495149.803739832756	2117.4918964505
0	5982	495537.640748452437	1871.6615804471
0	5989	496478.298858460081	2110.4768495075
0	6002	497413.533022860107	2263.7292830274
0	6007	497768.924898840529	1921.5088218916
0	6016	498411.932212952566	1692.7779659629
0	6025	499126.184621499894	1712.6515986398
0	6036	500175.453200284433	2235.5865783524
0	6047	500896.082251612139	2141.460612556
0	6054	501588.21239937101	2089.8219848983
0	6061	501913.093743380201	1689.728943212
0	6074	503034.430198464585	2138.3479468524
0	6083	503706.012018257794	2029.3192368932
0	6090	504444.567275187043	2228.3052495215
0	6097	505302.895993273748	2268.4657948092
0	6108	506076.641844911544	2370.6298266538
0	6115	506398.231962416364	1820.1940996572
0	6124	507547.515389649241	2080.5692883208
0	6133	508611.109848087696	2355.5504150223
0	6142	509136.204254301308	2015.9818123095
0	6151	510129.454809660135	2259.3941604719
0	6160	511011.284354981078	2307.6290650293
0	6173	511860.462727770253	2274.0266821347
0	6182	512485.765685560225	2027.5848638266
0	6191	513125.871356483592	2034.1936494224
0	6198	513897.348250681578	2036.8855229113
0	6205	514253.901652386455	1768.1359668262
0	6214	515106.607651524289	1980.7362950407
0	6223	515587.756747473074	1653.6460576113
0	6228	516070.283066248565	1389.1592502594
0	6245	517506.633336748971	2186.4141559694
0	6252	518212.434422923295	2099.1450566333
0	6259	518678.581984480886	1667.6339866128
0	6270	519402.807868458374	1896.1745317094
0	6277	520029.57983259116	1655.5758462287
0	6290	521100.654140207959	2359.1462949291
0	6299	521874.325521988837	2451.7870632
0	6308	522444.896201742856	2173.4631330706
0	6315	523102.451092377348	2001.7969521694
0	6324	523665.871090907646	1791.5455689188
0	6331	524619.095690175934	2174.1994884331
0	6340	525109.039796842306	1878.5181162413
0	6353	526463.839167449667	2342.4709528685
0	6362	526907.819345500364	2092.4614784773
0	6369	527623.412455106198	2004.3885289226
0	6378	528403.662890475287	1939.8237230256
0	6389	529417.224595695777	2509.4052501954
0	6394	529841.501912707506	2174.4792215992
0	6407	531082.194990338801	2516.7137379292
0	6416	531853.890518238811	2436.665922543
0	6423	532333.246629266111	2127.9182367492
0	6430	532722.940651327414	1640.7456609886
0	6439	533402.297476585997	1548.4069583472
0	6452	534611.784099927215	2257.6410602778
0	6457	534970.479133073283	1986.8230188265
0	6466	536128.041935060216	2287.3295259196
0	6475	536551.937366416721	1940.1532664895
0	6486	537686.315319920002	2212.9310181364
0	6489	538016.072303429289	1736.0903147142
0	6502	538832.268866244746	1674.726314703
0	6515	539892.977920593737	1853.1903552823
0	6524	540708.874918380795	2181.0948274098
0	6529	541123.863897845192	2113.2944868878
0	6542	542099.618536513342	2206.6406159196
0	6551	542961.298794206275	2252.4238758255
0	6558	543557.699131267189	1994.2558242939
0	6565	543922.428521281152	1822.8099847678
0	6578	545286.861863639249	2325.563069433
0	6585	545963.266714755489	2301.5193206258
0	6596	546773.800626117779	2294.9621405918
0	6603	547651.738049648745	2364.8761860095
0	6614	548419.827388739256	2392.007014202
0	6621	548964.630188467024	2190.8295623492
0	6630	549588.936588820113	1926.3689392246
0	6641	550495.553171541584	2075.7257828023
0	6650	551371.19530993518	2307.075398555
0	6659	552134.707676013974	2485.436503496
0	6664	552554.389348207084	2058.8361766655
0	6673	553026.282832771582	1655.0875228364
0	6678	553819.353847112549	1684.6461710986
0	6695	555115.901296958369	2158.4229407832
0	6704	555860.637948196423	2038.3089962415
0	6713	556352.865610085469	1720.4353458714
0	6722	557064.032754069235	1948.1314571109
0	6731	557914.661512943026	2054.0235647466
0	6738	558580.922876950395	2228.0572668649
0	6745	559001.968482881826	1937.9357288126
0	6756	560011.340823629913	2096.6793106869
0	6763	560464.057839335916	1843.4770437889
0	6772	560966.401494154748	1681.2451890204
0	6783	561972.29555253875	1944.6399993729
0	6792	562597.282198537183	1926.3403400313
0	6799	563248.170294379857	1850.9552825242
0	6810	564418.546636216385	2362.9390832037
0	6817	564887.72766357292	1971.6710090172
0	6826	565800.851472839755	2163.7079919688
0	6839	566782.639986695764	2289.4157427829
0	6844	567229.129638942001	1972.6828082465
0	6855	568133.893766161097	2094.5380103309
0	6864	568857.016994711054	2074.3770080153
0	6871	569405.096730776173	1764.8724496365
0	6882	570021.526694716928	1670.4239489045
0	6893	571116.025802074044	2153.1991709489
0	6898	571421.819510590329	1714.6225294098
0	6907	572035.117768636017	1659.127377905
0	6916	573096.774857165336	1980.7490550913
0	6925	573547.990886913656	1566.0608458333
0	6936	574508.882997091903	1946.8915027566
0	6947	575404.873977927535	2030.9923702385
0	6952	575763.654390256896	1680.7072630618
0	6961	576593.969119386791	1845.7711083814
0	6970	577259.697347553491	1854.823369626
0	6981	578525.836507324173	2278.0244024936
0	6992	579497.225878620563	2430.9036752209
0	7001	580261.653271643488	2529.6253262088
0	7008	580864.901374932422	2251.6770566348
0	7015	581219.479288207411	1722.2534095868
0	7026	582209.896000474735	1948.2427288312
0	7033	582574.426913308023	1587.6021108124
0	7044	583199.257681751667	1378.7992259022
0	7055	584207.616013521372	1997.2230593674
0	7062	584761.35617452678	2054.730836302
0	7071	585453.548958571672	2126.0874196887
0	7082	586266.62979461257	2059.0137810912
0	7089	586924.978756997777	1912.5427471474
0	7098	587654.403075389607	2145.493502263
0	7105	588357.153087761296	2090.5232931487
0	7118	589413.868266809774	2381.4427990001
0	7127	590292.951764306096	2373.176959483
0	7136	591168.019099719865	2573.0872543529
0	7143	591848.299108492253	2434.4308416825
0	7150	592434.659050824163	2141.7072865181
0	7163	593420.491985650777	2252.4728859309
0	7168	593886.647150153338	2010.5914362241
0	7179	594750.420071370944	2018.3908295352
0	7188	595588.773321546659	2168.2813358959
0	7195	596148.473213799342	1889.74706484
0	7204	597016.636300133585	1898.6840458587
0	7213	597430.242169881284	1752.4784000125
0	7224	598188.564093969807	1826.4949761797
0	7231	598759.454024629712	1554.5452738646
0	7240	599445.096283312932	1587.6391996164
0	7251	600325.00494285491	1891.219209088
0	7260	600892.535578832074	1845.6814890727
0	7267	601379.140040930404	1697.2388278227
0	7276	602293.78388570626	1860.6610779651
0	7289	603337.708484195217	2249.7701018583
0	7296	604129.918712005063	2177.1795954555
1	3165	260968.015481717915	350
1	3176	261806.461431691454	351
1	3185	262484.771265042977	352
1	3190	262785.893916478412	353
1	3203	263670.113129960405	354
1	3210	264471.519727679002	355
1	3221	265304.206589749115	356
1	3228	265815.211419621515	357
1	3235	266557.326144073191	358
1	3244	267319.542253855648	359
1	3257	268419.236921332809	360
1	3264	269089.200367871704	361
1	3273	269727.222550381007	362
1	3284	270465.238654520395	363
1	3291	271217.865970311719	364
1	3302	271976.87975401062	365
1	3311	272835.169651592182	366
1	3316	273154.000227386164	367
1	3327	274263.132405281098	368
1	3336	274763.261329382689	369
1	3343	275480.640581063957	370
1	3352	276283.443238958748	371
1	3361	276896.712380228596	372
1	3370	278031.286711106108	373
1	3381	278995.674760406869	374
1	3388	279601.931388722765	375
1	3399	280703.268100367891	376
1	3410	281359.570649312841	377
1	3417	282122.879459895226	378
1	3426	282749.379445798727	379
1	3437	283308.106286544384	380
1	3444	284012.940041022407	381
1	3453	284877.040915098073	382
1	3460	285197.210396546902	383
1	3469	286190.86796063933	384
1	3478	286714.948414871501	385
1	3491	288062.631403561714	386
1	3498	288908.663492230731	387
1	3509	289719.103918969663	388
1	3518	290431.328607397186	389
1	3523	290830.797178158569	390
1	3532	291679.945435607838	391
1	3541	292183.478935947674	392
1	3550	292996.406186325508	393
1	3559	293546.78314123306	394
1	3572	295157.70838740285	395
1	3581	295721.29442766312	396
1	3590	296189.556901110368	397
1	3597	296755.805299803646	398
1	3604	297345.856563560696	399
1	3617	298566.46809903908	400
1	3626	299313.190036034244	401
1	3635	300056.270276382598	402
1	3640	300628.713445644858	403
1	3651	301457.562798913601	404
1	3658	302262.213315255973	405
1	3669	303120.655904570627	406
1	3676	303566.334168892386	407
1	3685	304552.833960251916	408
1	3696	305351.092934142832	409
1	3705	305983.72053005736	410
1	3714	306628.749093459953	411
1	3725	307505.999374715646	412
1	3734	308401.582214701955	413
1	3741	308848.061014758457	414
1	3748	309715.531866950948	415
1	3761	310553.138820407946	416
1	3770	311447.430924279649	417
1	3779	312199.552737688679	418
1	3784	312599.854936217923	419
1	3793	313362.525061285156	420
1	3806	314529.802299477193	421
1	3811	315033.958298200774	422
1	3816	315368.285915209013	423
1	3829	316664.089120924506	424
1	3838	317649.061468429897	425
1	3847	318184.33066774163	426
1	3858	319471.215575980056	427
1	3869	320134.534593997557	428
1	3876	320752.032803976942	429
1	3887	321874.78138385344	430
1	3892	322328.15854470249	431
1	3903	323181.721533788402	432
1	3910	323503.129077376832	433
1	3919	324614.044965477695	434
1	3932	325995.756839588319	435
1	3939	326717.95381950218	436
1	3950	327587.881915178184	437
1	3959	328419.196191290428	438
1	3966	329016.088391421397	439
1	3975	329604.32715620849	440
1	3984	330199.018705403467	441
1	3991	330628.940786747297	442
1	4002	331524.464123323594	443
1	4013	332489.441082067822	444
1	4020	333292.308273213019	445
1	4027	333667.791505996173	446
1	4040	334770.720021938939	447
1	4045	335242.596747726236	448
1	4058	336315.207708114792	449
1	4067	336937.955954577808	450
1	4076	337736.766705522348	451
1	4081	338239.786414057051	452
1	4090	338653.462742362206	453
1	4099	339485.581583669443	454
1	4110	340418.456938723136	455
1	4117	340800.977200269733	456
1	4130	342190.735139977221	457
1	4137	342979.497226187993	458
1	4146	343484.362986590747	459
1	4157	344329.507511621375	460
1	4166	345148.28711911108	461
1	4173	345557.42796720009	462
1	4180	346138.909403700416	463
1	4189	346967.216248344663	464
1	4198	347680.142588680643	465
1	4207	348122.030227119136	466
1	4216	348802.624158421565	467
1	4225	349297.599166911128	468
1	4236	350521.245818305794	469
1	4245	351306.096552545238	470
1	4254	351973.054904770139	471
1	4263	352577.271346701342	472
1	4272	353411.739756446365	473
1	4279	354161.218402627889	474
1	4288	354717.318663233924	475
1	4299	356344.718344369936	476
1	4310	357128.15906046893	477
1	4315	357565.963296219739	478
1	4324	358106.457450147752	479
1	4333	358737.691541388664	480
1	4346	360091.429068474133	481
1	4355	360925.968741299619	482
1	4364	361631.223674817045	483
1	4373	362454.177676979487	484
1	4380	363130.654502520372	485
1	4389	363840.891352482174	486
1	4398	364586.235193396022	487
1	4407	365094.237274909427	488
1	4416	365617.884136643296	489
1	4423	366506.462009623682	490
1	4432	367131.552026281168	491
1	4443	367979.525452293491	492
1	4450	368848.811818147114	493
1	4463	369963.12613226477	494
1	4468	370383.098314935378	495
1	4477	371066.102339979298	496
1	4486	371531.212043948509	497
1	4499	372985.317810578309	498
1	4506	373326.315435720645	499
1	4515	374282.949765119739	500
1	4526	375119.449801510237	501
1	4533	375839.412680966817	502
1	4540	376219.25451471474	503
1	4549	376999.63863068264	504
1	4562	378545.464848540761	505
1	4567	379073.093129228838	506
1	4576	379728.099027648606	507
1	4589	380717.973856162318	508
1	4594	381167.877852357962	509
1	4603	381928.381041577124	510
1	4616	383131.880396325179	511
1	4625	383993.601418565997	512
1	4632	384633.100114110896	513
1	4643	385484.481902327427	514
1	4648	385928.993391478473	515
1	4657	386570.919078681657	516
1	4668	387330.447485670486	517
1	4679	388612.118027871513	518
1	4684	389151.080453256184	519
1	4697	389911.265387618952	520
1	4706	390591.669489070811	521
1	4711	390903.920333460011	522
1	4720	391781.450119894036	523
1	4731	392775.755957420954	524
1	4742	393553.953606588804	525
1	4747	393971.30543310199	526
1	4756	394919.26322118383	527
1	4765	395535.384709294924	528
1	4774	396156.616854155474	529
1	4783	396552.571088355073	530
1	4792	397339.006332121828	531
1	4801	397994.10315910358	532
1	4814	399080.235092109107	533
1	4823	399952.802299987563	534
1	4832	400669.574333215171	535
1	4839	401349.471613531971	536
1	4846	401797.376513527745	537
1	4855	402832.543523842508	538
1	4866	403512.114483118097	539
1	4873	404371.455967286641	540
1	4884	405162.145801959598	541
1	4895	405884.934788988942	542
1	4900	406221.459349617401	543
1	4913	407309.053815063128	544
1	4918	407657.860205741638	545
1	4931	408936.731061525682	546
1	4938	409566.760025080333	547
1	4945	410148.794215545098	548
1	4954	410878.911984013433	549
1	4959	411374.502515606621	550
1	4976	412800.553850457111	551
1	4981	413122.80232454654	552
1	4990	413990.739195188546	553
1	5003	414823.476225743109	554
1	5008	415283.836894389281	555
1	5017	416177.93800625954	556
1	5026	416719.482688559258	557
1	5035	417481.799553846979	558
1	5044	418547.203471837604	559
1	5053	418922.554200701455	560
1	5066	420116.472228337118	561
1	5075	420821.468056691849	562
1	5082	421452.468784712294	563
1	5093	422379.46155918766	564
1	5102	423272.953106928656	565
1	5111	423969.75807971325	566
1	5120	424731.261724373365	567
1	5125	425199.501655949319	568
1	5138	426076.679968088905	569
1	5147	426975.424787309061	570
1	5154	427667.907681874971	571
1	5163	428208.729302790056	572
1	5172	428968.92645182092	573
1	5183	429765.960192773531	574
1	5190	430408.570695156271	575
1	5199	430995.61956692491	576
1	5206	431357.740407949354	577
1	5219	432718.093677330802	578
1	5226	433401.313854474614	579
1	5237	434376.252466114278	580
1	5244	434724.463262222747	581
1	5247	435060.470456443767	582
1	5262	436043.99115066048	583
1	5271	436804.705201461951	584
1	5280	437491.564286593388	585
1	5291	438393.644702900241	586
1	5300	438997.045813780318	587
1	5307	439597.395041864405	588
1	5316	440288.108015852089	589
1	5323	440861.627393262501	590
1	5332	441268.683752557304	591
1	5341	442331.067082006525	592
1	5350	443210.573075339238	593
1	5363	444005.771776428486	594
1	5370	444539.701938908587	595
1	5381	445670.825594337697	596
1	5388	446370.038346201221	597
1	5395	447035.16421043318	598
1	5406	447883.283914905081	599
1	5415	448632.121987547765	600
1	5424	449115.860993647987	601
1	5431	449925.197827722917	602
1	5444	450862.903123162727	603
1	5449	451240.596430935006	604
1	5460	452399.59481949922	605
1	5467	452857.617160957347	606
1	5478	453843.972507538314	607
1	5487	454417.482551839243	608
1	5498	455398.021322954486	609
1	5507	455954.995631519745	610
1	5514	456594.700101669918	611
1	5521	456951.581154903437	612
1	5530	457959.03083360758	613
1	5541	459056.772295944433	614
1	5550	460075.097881257574	615
1	5559	460658.473651623393	616
1	5566	461129.701013909692	617
1	5575	461568.758892919908	618
1	5586	462700.011007301548	619
1	5597	463515.300341974983	620
1	5604	464066.339033469597	621
1	5611	464419.888383010442	622
1	5620	465386.365355271885	623
1	5629	466301.52593110692	624
1	5640	467157.181176776105	625
1	5647	467664.199580065945	626
1	5656	468290.546547621528	627
1	5669	469358.290152344892	628
1	5674	469679.258849518413	629
1	5683	470721.966925263444	630
1	5694	471497.841747198294	631
1	5703	472322.258206503505	632
1	5710	473402.978450199629	633
1	5719	474110.117576178203	634
1	5730	474878.406127262901	635
1	5739	475468.61880091023	636
1	5742	475770.511065004434	637
1	5751	476453.384532267268	638
1	5768	477997.893059765962	639
1	5777	478836.911370931235	640
1	5784	479480.339630367276	641
1	5791	480003.593817399856	642
1	5802	480885.613186983434	643
1	5809	481636.29885306586	644
1	5820	482353.663671948058	645
1	5827	483053.148193890271	646
1	5838	484161.447460111273	647
1	5849	484907.337156403852	648
1	5854	485636.248768167613	649
1	5865	486374.805148690981	650
1	5876	487215.542299440173	651
1	5881	487612.526578316507	652
1	5892	488187.617147946773	653
1	5899	489120.672560250429	654
1	5912	490304.307389119683	655
1	5919	490994.553986052094	656
1	5930	491702.236061962364	657
1	5939	492494.343437533868	658
1	5946	492913.539663283197	659
1	5955	493413.454873859925	660
1	5964	494322.644278407139	661
1	5975	495149.803739832756	662
1	5982	495537.640748452437	663
1	5989	496478.298858460081	664
1	6002	497413.533022860107	665
1	6007	497768.924898840529	666
1	6016	498411.932212952566	667
1	6025	499126.184621499894	668
1	6036	500175.453200284433	669
1	6047	500896.082251612139	670
1	6054	501588.21239937101	671
1	6061	501913.093743380201	672
1	6074	503034.430198464585	673
1	6083	503706.012018257794	674
1	6090	504444.567275187043	675
1	6097	505302.895993273748	676
1	6108	506076.641844911544	677
1	6115	506398.231962416364	678
1	6124	507547.515389649241	679
1	6133	508611.109848087696	680
1	6142	509136.204254301308	681
1	6151	510129.454809660135	682
1	6160	511011.284354981078	683
1	6173	511860.462727770253	684
1	6182	512485.765685560225	685
1	6191	513125.871356483592	686
1	6198	513897.348250681578	687
1	6205	514253.901652386455	688
1	6214	515106.607651524289	689
1	6223	515587.756747473074	690
1	6228	516070.283066248565	691
1	6245	517506.633336748971	692
1	6252	518212.434422923295	693
1	6259	518678.581984480886	694
1	6270	519402.807868458374	695
1	6277	520029.57983259116	696
1	6290	521100.654140207959	697
1	6299	521874.325521988837	698
1	6308	522444.896201742856	699
1	6315	523102.451092377348	700
1	6324	523665.871090907646	701
1	6331	524619.095690175934	702
1	6340	525109.039796842306	703
1	6353	526463.839167449667	704
1	6362	526907.819345500364	705
1	6369	527623.412455106198	706
1	6378	528403.662890475287	707
1	6389	529417.224595695777	708
1	6394	529841.501912707506	709
1	6407	531082.194990338801	710
1	6416	531853.890518238811	711
1	6423	532333.246629266111	712
1	6430	532722.940651327414	713
1	6439	533402.297476585997	714
1	6452	534611.784099927215	715
1	6457	534970.479133073283	716
1	6466	536128.041935060216	717
1	6475	536551.937366416721	718
1	6486	537686.315319920002	719
1	6489	538016.072303429289	720
1	6502	538832.268866244746	721
1	6515	539892.977920593737	722
1	6524	540708.874918380795	723
1	6529	541123.863897845192	724
1	6542	542099.618536513342	725
1	6551	542961.298794206275	726
1	6558	543557.699131267189	727
1	6565	543922.428521281152	728
1	6578	545286.861863639249	729
1	6585	545963.266714755489	730
1	6596	546773.800626117779	731
1	6603	547651.738049648745	732
1	6614	548419.827388739256	733
1	6621	548964.630188467024	734
1	6630	549588.936588820113	735
1	6641	550495.553171541584	736
1	6650	551371.19530993518	737
1	6659	552134.707676013974	738
1	6664	552554.389348207084	739
1	6673	553026.282832771582	740
1	6678	553819.353847112549	741
1	6695	555115.901296958369	742
1	6704	555860.637948196423	743
1	6713	556352.865610085469	744
1	6722	557064.032754069235	745
1	6731	557914.661512943026	746
1	6738	558580.922876950395	747
1	6745	559001.968482881826	748
1	6756	560011.340823629913	749
1	6763	560464.057839335916	750
1	6772	560966.401494154748	751
1	6783	561972.29555253875	752
1	6792	562597.282198537183	753
1	6799	563248.170294379857	754
1	6810	564418.546636216385	755
1	6817	564887.72766357292	756
1	6826	565800.851472839755	757
1	6839	566782.639986695764	758
1	6844	567229.129638942001	759
1	6855	568133.893766161097	760
1	6864	568857.016994711054	761
1	6871	569405.096730776173	762
1	6882	570021.526694716928	763
1	6893	571116.025802074044	764
1	6898	571421.819510590329	765
1	6907	572035.117768636017	766
1	6916	573096.774857165336	767
1	6925	573547.990886913656	768
1	6936	574508.882997091903	769
1	6947	575404.873977927535	770
1	6952	575763.654390256896	771
1	6961	576593.969119386791	772
1	6970	577259.697347553491	773
1	6981	578525.836507324173	774
1	6992	579497.225878620563	775
1	7001	580261.653271643488	776
1	7008	580864.901374932422	777
1	7015	581219.479288207411	778
1	7026	582209.896000474735	779
1	7033	582574.426913308023	780
1	7044	583199.257681751667	781
1	7055	584207.616013521372	782
1	7062	584761.35617452678	783
1	7071	585453.548958571672	784
1	7082	586266.62979461257	785
1	7089	586924.978756997777	786
1	7098	587654.403075389607	787
1	7105	588357.153087761296	788
1	7118	589413.868266809774	789
1	7127	590292.951764306096	790
1	7136	591168.019099719865	791
1	7143	591848.299108492253	792
1	7150	592434.659050824163	793
1	7163	593420.491985650777	794
1	7168	593886.647150153338	795
1	7179	594750.420071370944	796
1	7188	595588.773321546659	797
1	7195	596148.473213799342	798
1	7204	597016.636300133585	799
1	7213	597430.242169881284	800
1	7224	598188.564093969807	801
1	7231	598759.454024629712	802
1	7240	599445.096283312932	803
1	7251	600325.00494285491	804
1	7260	600892.535578832074	805
1	7267	601379.140040930404	806
1	7276	602293.78388570626	807
1	7289	603337.708484195217	808
1	7296	604129.918712005063	809

