version 2
run Pipelined_3Teachers-45-20190105-10:57:28-20876
attr configname Pipelined_3Teachers
attr datetime 20190105-10:57:28
attr experiment Pipelined_3Teachers
attr inifile ../simulations/omnetpp.ini
attr iterationvars "$0=\"uniform\""
attr iterationvarsf uniform-
attr measurement "$0=\"uniform\""
attr network PipelinedExamSession
attr processid 20876
attr repetition 45
attr replication #45
attr resultdir results
attr runnumber 45
attr seedset 45
param **.teachersNumber 3
param **.answerTimeDistribution "\"uniform\""
param **.minUniform 300
param **.maxUniform 900
param **.scaleLognormal 6.2854
param **.shapeLognormal 0.4724

vector 0 PipelinedExamSession examinationTime:vector ETV
attr source examFinished
vector 1 PipelinedExamSession studentID:vector ETV
attr source student
0	3140	260502.062353212407	2419.5835017599
0	3145	260970.518962852678	2048.0219442397
0	3158	262113.41713112781	2478.3375319093
0	3165	262608.078583655899	2106.0162304435
0	3172	263147.497541131472	1782.0858439431
0	3185	264112.312375288477	1998.8952441607
0	3190	264477.25059511142	1658.1670346204
0	3199	265318.700310308507	1738.6400731746
0	3212	266471.223055338508	2358.91068005
0	3221	267066.072442615426	2058.5528299212
0	3230	267759.427249431631	1986.3343362696
0	3235	268275.859198998681	1804.6361436602
0	3248	269013.154289033284	1947.0818464179
0	3257	269879.37555690298	2119.9483074713
0	3262	270529.857715498676	2154.3832822703
0	3275	271325.837731221711	2312.6834421884
0	3282	271837.425535731038	1958.0499788281
0	3289	272341.284776665291	1657.1819131728
0	3300	273604.528402676826	2278.6906714551
0	3307	274142.781399842372	2301.2465514243
0	3320	275089.747228520011	2351.1738343164
0	3325	275473.1719681062	1839.3777372781
0	3336	276321.979589900022	2041.1864778958
0	3343	276766.982654761543	1677.2354262415
0	3352	277295.061089750399	1612.362507591
0	3363	278561.947842501124	2123.9230470266
0	3372	279374.200852727538	2116.7430066504
0	3381	280197.500808443895	2259.5658271573
0	3390	280885.844996385296	2255.0919549074
0	3397	281439.769403776174	2006.0446090065
0	3406	282046.784245641922	1808.6729094386
0	3415	282465.403700061163	1498.5409822315
0	3424	283159.632393484955	1433.9317519683
0	3433	283870.235901838188	1618.1920762639
0	3444	284775.316555565243	1916.0544070881
0	3451	285263.799893204143	1553.3237610944
0	3462	286352.495290059615	2030.984709179
0	3473	287428.905077883993	2252.9278726783
0	3482	288174.632282042895	2318.1028341874
0	3487	288651.017995225285	2009.8394229077
0	3496	289379.488263325785	1950.5831854418
0	3507	290256.527224089969	2081.8949420471
0	3514	290578.995407698695	1635.4283160064
0	3525	291489.541393518467	1949.1253837477
0	3536	292333.89686057346	1927.828368824
0	3543	292857.588417269309	1758.3957944065
0	3550	293218.708426645045	1655.8485940564
0	3559	294075.749586196636	1741.8527256232
0	3568	294903.901404747759	1955.273939576
0	3581	295603.075514640679	1986.0263295472
0	3590	296424.902835348641	1911.7075980641
0	3595	296794.457267923301	1869.0186544787
0	3604	297246.785666747038	1643.7101521064
0	3617	298672.452949220335	2247.5501138717
0	3624	299078.03393220531	1938.6904356536
0	3635	300337.147622695213	2427.4827833287
0	3640	300749.544338090366	2077.09138887
0	3649	301556.838394934332	1987.0580616407
0	3658	302507.751296041554	2170.6036733463
0	3667	303170.581068797058	1958.7094180752
0	3676	303870.497741689927	1806.2750298064
0	3687	304810.09489092978	1925.2802703995
0	3696	305906.173465540654	2328.0776001513
0	3703	306295.648886868752	1884.092839295
0	3714	307373.31821434202	2184.833294386
0	3723	307925.070913368858	1873.4416494146
0	3734	308610.692027863137	1933.4655351005
0	3743	309490.24364333602	2013.6523333378
0	3750	310191.649659723065	2140.6712172087
0	3759	310887.427704921014	2276.7356770579
0	3768	311724.713548505701	2234.4699051697
0	3775	312146.707246173195	1940.8884914126
0	3784	313286.012267181671	2307.4810312595
0	3793	313919.033927377335	2054.3071005028
0	3806	314728.873249143384	1997.5274546072
0	3813	315275.304483342938	1720.3555576969
0	3822	316039.513927884422	1957.5252827257
0	3829	316936.127587314717	2207.2543381713
0	3840	318004.035595105983	2412.8002764657
0	3849	318655.918435938678	2292.7216923796
0	3860	319430.137904500611	2264.5345686469
0	3865	319773.139581084274	1720.8470243029
0	3876	321037.591993762203	2116.5440515615
0	3883	321404.535453999437	1974.3975494988
0	3892	322055.539788957707	1806.9059193134
0	3901	323165.68246856334	2063.3583849762
0	3914	324275.670852279312	2355.0303045195
0	3921	324747.928809793687	2021.4826361742
0	3928	325710.957058193184	2233.3473770879
0	3937	326674.836947349853	2399.1660950705
0	3948	327258.809954300545	2095.279129548
0	3959	328473.13018999996	2434.5881990623
0	3968	329186.911416426323	2291.6858383454
0	3973	329673.080552788473	2031.2145542353
0	3982	330229.945770883955	1756.815580884
0	3993	331486.500333482422	2299.5889170561
0	4004	332315.081094531364	2400.448401086
0	4011	332892.226935736857	2195.6111133099
0	4022	333864.906591782368	2295.5319358036
0	4031	334596.127794776134	2281.0467002448
0	4038	335249.190937494881	2072.7932320442
0	4049	336283.680142834805	2418.7735510524
0	4056	337093.913165386789	2497.7853706107
0	4067	337701.977004809328	2209.5835540909
0	4072	338212.701843353011	1929.0217005182
0	4083	339020.66898448395	1894.7860751767
0	4092	339623.819577740528	1921.8425729312
0	4099	340069.703577552013	1594.343072176
0	4112	341228.278677770892	1939.5833272487
0	4119	341802.868895838061	1783.0973703414
0	4128	342351.915790792579	1889.1190589871
0	4135	342837.822085618997	1609.5434078481
0	4146	343755.168831674406	1797.1471436787
0	4157	344766.910452023173	2102.2737506311
0	4162	345092.775996727893	1776.0262335185
0	4171	345899.776200670774	2006.1741285492
0	4180	346716.797681758205	1949.887229735
0	4189	347431.631019199292	1916.5150981396
0	4198	348446.424921462337	2050.5328228232
0	4207	348937.634691596056	1641.8724511284
0	4220	349773.802776541586	1633.7683706079
0	4229	350527.473796298753	1661.9831572752
0	4234	350946.779021294813	1602.6845003944
0	4247	351938.187301391761	2164.3845248502
0	4256	352812.417086027588	2284.9432897288
0	4265	353365.557420020948	2202.9412984382
0	4272	354197.880998114149	2259.6936967224
0	4279	354825.043596513594	2012.626510486
0	4288	355426.272472925509	2060.7150529046
0	4297	355938.680417463209	1729.4910793193
0	4306	356797.484541870679	1706.231678836
0	4319	357840.03567975017	1903.2806585077
0	4328	358685.153655381899	2234.0771066956
0	4333	358993.161558453019	1844.8548029177
0	4344	359872.486146586042	2032.4504668359
0	4355	360601.936021121245	1916.7823657393
0	4360	360959.378182701793	1581.8696924485
0	4369	361554.103378811878	1629.9948703498
0	4374	362023.366709472639	1421.4306883514
0	4389	363572.279323032153	2340.8166360576
0	4400	364210.674370173392	2134.5758822747
0	4409	364973.153909621787	2115.522666648
0	4414	365277.674466557828	1556.4331300557
0	4425	366017.504417896298	1806.8300477229
0	4434	366631.464500259635	1658.3105906378
0	4441	367241.816077195135	1545.8808136638
0	4446	367929.539585625781	1686.1621630378
0	4463	369563.722881395398	2437.1513967868
0	4468	369991.223584022401	2044.9523288291
0	4477	370760.278204176603	2067.5764353946
0	4488	371915.121944993762	2351.3990635984
0	4495	372287.591451639337	1824.1189636756
0	4504	373066.598867112798	1784.4709330704
0	4513	373740.411134529886	1703.2570465934
0	4522	374460.073880525333	1687.1940162498
0	4531	375371.594798332108	1806.8200324662
0	4540	375819.986776588513	1739.1006871127
0	4549	376753.695941995858	1929.5751325786
0	4558	377353.758443333237	1715.5006839428
0	4567	378283.90419934879	1835.4604088701
0	4576	379228.437042050092	2025.9668938816
0	4589	380016.113779647304	1997.9760048911
0	4594	380321.176039008452	1578.3691868652
0	4603	381008.694893354578	1528.6351954099
0	4614	381777.447234978927	1761.3334553316
0	4623	382718.363406881719	2021.4604868554
0	4630	383105.273646628513	1834.7894509323
0	4639	383727.165388595341	1619.9379642494
0	4652	385087.31563221666	2126.5674157999
0	4661	385677.374419569997	2258.6887849029
0	4670	386487.191178649692	2270.830386132
0	4679	387380.790864676265	2293.4752324596
0	4684	387848.897766647888	2171.5233470779
0	4693	388495.821579080103	2008.6304004304
0	4702	389244.154062727494	1863.3631980512
0	4713	389929.467274015798	1829.8282428179
0	4720	390564.88342671658	1895.874511404
0	4729	391284.036365523963	1884.5957133919
0	4740	392219.736246764689	1960.8211304527
0	4751	393183.045061910554	2200.3864059225
0	4756	393502.696200041129	1990.5473976396
0	4765	394550.212894007593	2152.2588749416
0	4778	395331.551966071158	2148.5069041606
0	4783	396146.997107332602	2143.1341862306
0	4794	396752.528999978706	2153.5161208827
0	4801	397254.811824671954	1923.2598586008
0	4814	398307.658756803751	2129.0164165199
0	4819	398741.542704356864	1952.4512988981
0	4830	399449.931388674334	1893.2405289263
0	4841	400217.018870031491	1909.3601132277
0	4846	400551.524871541217	1529.8754762392
0	4857	401465.273104095861	1953.7772314623
0	4864	402017.601750092611	1800.5828800611
0	4873	402670.352796977416	1666.5302536916
0	4886	403609.101805603162	2090.6455581542
0	4893	404113.41241481717	1902.1952559706
0	4900	404664.257106743783	1675.7008805405
0	4909	405456.40628412369	1847.3044785205
0	4918	406225.707460194857	1858.0936237704
0	4927	406745.828655548425	1566.7520707939
0	4936	407493.570512719484	1541.8455517385
0	4947	408247.821341408448	1525.0163767487
0	4954	408799.887891020657	1439.6497651935
0	4963	409780.50931049514	1999.4718615431
0	4974	410786.50966314602	2299.5118133258
0	4981	411777.106087189199	2391.0632962827
0	4992	412558.861364750222	2359.2405536212
0	4999	412969.901486579359	1870.8837239072
0	5008	413630.92799219306	1692.8452331107
0	5019	414486.781569896297	1712.7536294516
0	5030	415391.638405714215	1965.1507972274
0	5035	415780.548106832461	1739.2671870533
0	5044	416311.953678773747	1703.4589602146
0	5057	417213.021028786928	1821.3826230727
0	5062	417548.94776805307	1565.2251549996
0	5075	418900.762386666641	2268.1427221745
0	5080	419416.577062848986	2203.5560340621
0	5089	420015.346163325042	1960.5499775615
0	5100	420579.636464361132	1678.8740776945
0	5111	421465.839008381621	1914.2390064429
0	5120	422209.79485558349	2013.1829362828
0	5129	423060.700593749092	2474.2464550305
0	5136	423568.02394213158	2102.18493375
0	5143	424102.15921313505	1892.3643575516
0	5152	424519.373842841045	1458.673249092
0	5161	425698.769699223371	2013.8831446879
0	5174	426679.620404401824	2366.1648266483
0	5181	427068.714681174636	1924.2933912668
0	5188	427746.836131811172	1942.208148865
0	5201	428649.912922550023	1970.2925181482
0	5210	429487.16243240054	2279.4361276086
0	5215	429989.457149198309	2033.4996728227
0	5224	430800.517056975544	2150.6041344255
0	5235	431687.658172147379	2200.4957397468
0	5244	432549.052483029694	2261.2579170149
0	5251	433340.684824995726	2227.8508781455
0	5264	434190.956677263633	2299.6328809764
0	5273	434981.25164997767	2384.0467392001
0	5282	435608.016852429167	2131.3473078422
0	5287	436248.514592461318	2057.5579151977
0	5300	437314.093390759111	2332.8417407814
0	5305	437628.755763871626	2020.7389114425
0	5314	438219.412543997199	1783.544330718
0	5323	438986.558199534223	1672.4648087751
0	5332	439804.774716636196	1774.7732218355
0	5341	440701.770245377005	2153.8785967045
0	5354	441571.42036696899	2154.2925445363
0	5359	441973.454155912653	1664.6144305822
0	5368	442779.754092358084	1891.0113021266
0	5381	443984.16154710579	2412.7411801368
0	5386	444309.555238438801	2050.2384827938
0	5395	445097.344471933351	1990.2312213555
0	5408	445742.188571859182	1758.0270247534
0	5417	446554.213384632052	1930.5119190831
0	5424	447235.285954456807	2082.5926494319
0	5431	447908.807914238454	2166.6193423793
0	5440	448446.105181239577	1891.8917966075
0	5449	449032.063289964603	1690.853774501
0	5458	449787.684109294818	1667.2093860805
0	5469	450788.993122056157	2048.484151857
0	5476	451650.567333446846	2253.2740814611
0	5487	452272.436935314939	2019.4959428161
0	5496	452714.169930992678	1695.9839849733
0	5503	453023.265910847143	1240.35786842
0	5516	454175.040381867469	1880.222696811
0	5523	454677.41307578984	1956.4676026348
0	5532	455453.817037213625	1925.8531631436
0	5539	455812.189151253583	1637.1487693861
0	5550	457112.520465161683	2197.9456074536
0	5557	457895.693687070193	2433.6014464963
0	5566	458640.364583395452	2293.1875807699
0	5577	459584.286157228084	2374.319028575
0	5588	460173.777331318738	2065.2933294419
0	5595	460601.31836095828	1847.7025345434
0	5604	461457.408818090366	1807.8734477051
0	5611	462057.953552808644	1884.1762214899
0	5624	463269.313276698845	2295.7915768493
0	5631	463656.774964090469	1806.9686990697
0	5638	464539.517215406555	1834.9740937818
0	5647	465239.841309841755	1970.5280331429
0	5656	466277.409630501676	2113.3091281168
0	5665	466743.514965288374	1838.3583719842
0	5674	467282.517579104785	1681.1231859494
0	5683	468056.762251071665	1691.8353886809
0	5692	468551.423587650094	1568.4966924135
0	5703	469738.950470695306	2310.2000942454
0	5712	470153.031108062748	1961.0976263881
0	5721	471082.696434482965	2025.3361873794
0	5732	471899.305759090964	2144.7388309054
0	5741	472495.168355573003	1922.6710029412
0	5746	472819.094258453731	1656.0298753437
0	5757	473936.466955812682	2037.1611967217
0	5764	474702.391822636162	2207.2234670632
0	5775	475705.692257685621	2331.8668717984
0	5782	476266.560411918943	2047.7426280733
0	5793	477150.904075289181	2056.7141489591
0	5800	477682.336628995872	1767.8664989769
0	5811	478632.407769374585	1988.6596161872
0	5818	479304.093302367291	1977.9299971182
0	5827	480000.562437577209	1789.3971248064
0	5838	480793.042185483537	1838.682405185
0	5845	481169.945018459148	1515.3481343295
0	5856	482144.632291328198	1903.6285812501
0	5863	482618.361137760839	1776.0995192919
0	5872	483414.247828396074	1921.8116747215
0	5885	484606.244554929472	2310.6210457161
0	5892	485290.326080471314	2308.628522465
0	5899	485995.958788180761	2239.9548186455
0	5910	486706.625930266491	2100.381375337
0	5917	487542.183589423112	2113.0426457617
0	5928	488235.523926559872	1919.819525443
0	5939	489442.014892771877	2251.4581636526
0	5946	490150.355156231709	2351.6690131277
0	5953	490765.206264797636	2142.8649392445
0	5962	491406.627345923371	1964.6124531515
0	5971	492154.130833782293	1969.6038812399
0	5980	492744.676540838592	1864.9150120094
0	5989	493438.668590085618	1759.3429505825
0	5998	494210.62826067213	1901.3646557461
0	6007	494566.233061859422	1583.4506941494
0	6016	495639.265965437555	1969.9401425198
0	6025	496135.035832598844	1819.0225866158
0	6034	496821.513476874718	1647.8047259152
0	6043	497383.588481275403	1500.5454956554
0	6054	498470.965572260359	2063.880425971
0	6061	498952.432232536414	2003.796879435
0	6070	499482.832280639597	1751.9776556175
0	6079	500200.07441639904	1580.8019047603
0	6088	501366.382384160572	2039.4573992584
0	6101	502451.853883266487	2410.2623430546
0	6106	502852.934055402913	1916.915442422
0	6117	503642.016259348058	1935.3318865411
0	6124	504028.626741981172	1576.7728587147
0	6133	505179.298108303957	1960.332291713
0	6144	506098.609054740556	2178.3303709701
0	6153	506884.766387566963	2428.7323765922
0	6160	507272.984623024279	1960.3337996174
0	6169	508229.299076646605	2022.7655102033
0	6178	509010.910244565496	1917.3795233946
0	6187	509829.36173561033	2143.4234693181
0	6198	510921.559747355098	2414.8291465826
0	6207	511424.189189448992	2029.428211553
0	6214	512208.33823098805	1973.1872905511
0	6225	512802.773524308617	1837.6975120045
0	6236	513807.465145178179	2115.6740846112
0	6241	514294.211019482503	1982.0606478956
0	6250	515169.531637290532	2068.074444076
0	6263	515963.114839000668	2155.6496938225
0	6270	516549.401267711114	1993.9620589837
0	6277	516883.875715406652	1506.7507827189
0	6286	517850.824018707539	1887.7091797069
0	6297	518834.267953131388	2242.6695685834
0	6306	519640.102766314562	2158.9158872142
0	6317	520618.956643017049	2341.7407429777
0	6326	521372.589990031014	2474.5667371899
0	6333	522045.114330668042	2271.0564667359
0	6344	522909.487653058062	2290.531010041
0	6351	523639.254817692603	2266.6648276616
0	6358	524066.804101271595	1982.2314110119
0	6371	525253.283588122617	2343.7959350646
0	6380	525977.787991706322	2188.5862923693
0	6385	526476.567867072339	2039.2287938856
0	6396	527133.187473099719	1879.9038849771
0	6403	527497.371534258167	1519.5835425518
0	6408	528221.670005237724	1506.6653778311
0	6421	529448.274682788219	1972.8207658511
0	6432	530667.534197447862	2305.5484306533
0	6443	531482.274667359929	2303.7565884646
0	6448	531900.201204791706	2023.0012917425
0	6459	532469.435816304799	1769.4619393442
0	6466	532925.658926647197	1443.3842592873
0	6477	533914.406832307618	1755.182601884
0	6488	534580.931241251569	1989.434157405
0	6497	535365.027284156572	1883.4088180214
0	6504	535928.926149336662	1882.4973554816
0	6511	536804.507502168458	2223.5762609169
0	6522	537498.348050611135	2133.3207664546
0	6529	538099.446920631494	1927.0603008103
0	6538	538557.870533410501	1611.8785250466
0	6549	539677.765386225697	2120.8453566302
0	6558	540672.289831331041	2298.4360019211
0	6565	541026.760775875341	2011.7272943258
0	6574	541632.276251865593	1758.2390539348
0	6587	542951.062239892822	2192.607760895
0	6592	543301.447800407227	1992.6906057168
0	6605	544555.861311731902	2478.8189202547
0	6614	545282.472897134763	2331.4106572419
0	6619	545633.97650071424	1961.7039766163
0	6630	546670.299674430904	2114.438362699
0	6637	547346.330098388759	2063.857201254
0	6648	548144.956653798041	2008.2580205519
0	6659	548994.380560610486	2068.0999869481
0	6664	549341.635881783483	1806.6731234081
0	6677	550436.136078648312	2188.7092688587
0	6682	550924.935737298844	1930.5551766884
0	6693	552002.766480948819	2230.1608888898
0	6702	552726.713696122212	2290.5776174739
0	6713	553690.789657831235	2467.8855950944
0	6722	554506.93017560993	2421.0509293713
0	6731	555251.328578917353	2395.9131939802
0	6738	555969.452676968692	2278.6630191375
0	6749	556776.143972156612	2269.2137965467
0	6754	557441.227132827086	2189.8985539097
0	6765	558059.103071177421	2085.9492169227
0	6776	558728.511555120392	1952.3675829638
0	6783	559155.614333599849	1500.096722832
0	6792	560062.800592370374	1962.2540186159
0	6803	560934.967831475704	2206.4562763553
0	6810	561449.997253390073	1890.6389683485
0	6819	562249.607398873239	2135.1493934635
0	6826	562617.982601188167	1683.0147697125
0	6837	563502.484888862863	1720.0320716947
0	6844	563969.153021229476	1672.8855747264
0	6853	564571.305498154878	1600.428073341
0	6862	565712.766289617911	2041.5865807794
0	6873	566711.476451950192	2311.3789741416
0	6880	567438.963130395904	2274.9443002045
0	6891	568243.842042842924	2257.3327284772
0	6900	568866.64405879569	2027.6219597552
0	6907	569706.750464625701	2047.6927972399
0	6916	570209.60633028303	1927.4632506073
0	6929	571083.580427756578	1930.7738108095
0	6936	571778.397178603381	2007.7764525544
0	6947	572548.406434804246	2043.050806364
0	6956	572980.708290031225	1897.1278622746
0	6963	573510.72300067176	1538.7025041506
0	6972	574615.884599648461	2067.4781648442
0	6979	575007.658074516848	2026.9497844856
0	6992	575977.794328378558	2130.9607333504
0	7001	576788.51167489779	2075.7202997804
0	7010	577510.128787206531	1934.5834693406
0	7017	578191.541054472372	2213.7467260938
0	7028	578943.078068643853	2154.5663937461
0	7037	579635.984463058457	2125.8556758519
0	7044	580343.927560793281	1958.3923192229
0	7051	580777.868313621775	1834.7902449779
0	7064	581706.954089691907	2070.9696266334
0	7071	582170.915759727403	1817.0515735634
0	7080	582884.745991649151	1738.1756530143
0	7087	583363.099357998043	1656.1452683061
0	7096	584390.452486323238	2003.1190015376
0	7107	585534.984322730497	2248.260190431
0	7116	586259.023877559275	2207.9245441128
0	7123	586966.407307377131	2042.9845442064
0	7134	587946.711207646922	2160.1291364059
0	7141	588430.104094091849	1999.7626572847
0	7152	589400.293576112063	2107.8404033091
0	7159	589911.730755586223	1807.4848392047
0	7168	590782.205808023036	2201.5303601045
0	7179	591809.594879625411	2351.0041639209
0	7188	592399.31710241367	2160.5433627963
0	7199	593279.726021178113	2232.7169733122
0	7204	593883.025195403071	1949.7892134357
0	7213	594348.287694621877	1548.5689461697
0	7222	595220.638027461293	1940.9120062832
0	7235	596481.288106413606	2348.6380058806
0	7240	596839.430301776204	1828.2948979642
0	7251	597560.09601918054	1766.8700824957
0	7262	598333.297366043601	1852.00925963
0	7269	598888.681195909206	2010.4005048517
0	7276	599348.763729538817	1770.7664136775
0	7285	599924.21790207741	1590.9205360338
0	7296	600962.254849216019	1854.6381382272
0	7307	601681.12935880204	2024.032846
0	7312	602255.819899449174	1989.4697915297
0	7323	603066.806834098001	2063.6449756566
0	7330	603404.639879381333	1723.5105205793
0	7341	604496.918762521868	2064.2563571222
1	3140	260502.062353212407	347
1	3145	260970.518962852678	348
1	3158	262113.41713112781	349
1	3165	262608.078583655899	350
1	3172	263147.497541131472	351
1	3185	264112.312375288477	352
1	3190	264477.25059511142	353
1	3199	265318.700310308507	354
1	3212	266471.223055338508	355
1	3221	267066.072442615426	356
1	3230	267759.427249431631	357
1	3235	268275.859198998681	358
1	3248	269013.154289033284	359
1	3257	269879.37555690298	360
1	3262	270529.857715498676	361
1	3275	271325.837731221711	362
1	3282	271837.425535731038	363
1	3289	272341.284776665291	364
1	3300	273604.528402676826	365
1	3307	274142.781399842372	366
1	3320	275089.747228520011	367
1	3325	275473.1719681062	368
1	3336	276321.979589900022	369
1	3343	276766.982654761543	370
1	3352	277295.061089750399	371
1	3363	278561.947842501124	372
1	3372	279374.200852727538	373
1	3381	280197.500808443895	374
1	3390	280885.844996385296	375
1	3397	281439.769403776174	376
1	3406	282046.784245641922	377
1	3415	282465.403700061163	378
1	3424	283159.632393484955	379
1	3433	283870.235901838188	380
1	3444	284775.316555565243	381
1	3451	285263.799893204143	382
1	3462	286352.495290059615	383
1	3473	287428.905077883993	384
1	3482	288174.632282042895	385
1	3487	288651.017995225285	386
1	3496	289379.488263325785	387
1	3507	290256.527224089969	388
1	3514	290578.995407698695	389
1	3525	291489.541393518467	390
1	3536	292333.89686057346	391
1	3543	292857.588417269309	392
1	3550	293218.708426645045	393
1	3559	294075.749586196636	394
1	3568	294903.901404747759	395
1	3581	295603.075514640679	396
1	3590	296424.902835348641	397
1	3595	296794.457267923301	398
1	3604	297246.785666747038	399
1	3617	298672.452949220335	400
1	3624	299078.03393220531	401
1	3635	300337.147622695213	402
1	3640	300749.544338090366	403
1	3649	301556.838394934332	404
1	3658	302507.751296041554	405
1	3667	303170.581068797058	406
1	3676	303870.497741689927	407
1	3687	304810.09489092978	408
1	3696	305906.173465540654	409
1	3703	306295.648886868752	410
1	3714	307373.31821434202	411
1	3723	307925.070913368858	412
1	3734	308610.692027863137	413
1	3743	309490.24364333602	414
1	3750	310191.649659723065	415
1	3759	310887.427704921014	416
1	3768	311724.713548505701	417
1	3775	312146.707246173195	418
1	3784	313286.012267181671	419
1	3793	313919.033927377335	420
1	3806	314728.873249143384	421
1	3813	315275.304483342938	422
1	3822	316039.513927884422	423
1	3829	316936.127587314717	424
1	3840	318004.035595105983	425
1	3849	318655.918435938678	426
1	3860	319430.137904500611	427
1	3865	319773.139581084274	428
1	3876	321037.591993762203	429
1	3883	321404.535453999437	430
1	3892	322055.539788957707	431
1	3901	323165.68246856334	432
1	3914	324275.670852279312	433
1	3921	324747.928809793687	434
1	3928	325710.957058193184	435
1	3937	326674.836947349853	436
1	3948	327258.809954300545	437
1	3959	328473.13018999996	438
1	3968	329186.911416426323	439
1	3973	329673.080552788473	440
1	3982	330229.945770883955	441
1	3993	331486.500333482422	442
1	4004	332315.081094531364	443
1	4011	332892.226935736857	444
1	4022	333864.906591782368	445
1	4031	334596.127794776134	446
1	4038	335249.190937494881	447
1	4049	336283.680142834805	448
1	4056	337093.913165386789	449
1	4067	337701.977004809328	450
1	4072	338212.701843353011	451
1	4083	339020.66898448395	452
1	4092	339623.819577740528	453
1	4099	340069.703577552013	454
1	4112	341228.278677770892	455
1	4119	341802.868895838061	456
1	4128	342351.915790792579	457
1	4135	342837.822085618997	458
1	4146	343755.168831674406	459
1	4157	344766.910452023173	460
1	4162	345092.775996727893	461
1	4171	345899.776200670774	462
1	4180	346716.797681758205	463
1	4189	347431.631019199292	464
1	4198	348446.424921462337	465
1	4207	348937.634691596056	466
1	4220	349773.802776541586	467
1	4229	350527.473796298753	468
1	4234	350946.779021294813	469
1	4247	351938.187301391761	470
1	4256	352812.417086027588	471
1	4265	353365.557420020948	472
1	4272	354197.880998114149	473
1	4279	354825.043596513594	474
1	4288	355426.272472925509	475
1	4297	355938.680417463209	476
1	4306	356797.484541870679	477
1	4319	357840.03567975017	478
1	4328	358685.153655381899	479
1	4333	358993.161558453019	480
1	4344	359872.486146586042	481
1	4355	360601.936021121245	482
1	4360	360959.378182701793	483
1	4369	361554.103378811878	484
1	4374	362023.366709472639	485
1	4389	363572.279323032153	486
1	4400	364210.674370173392	487
1	4409	364973.153909621787	488
1	4414	365277.674466557828	489
1	4425	366017.504417896298	490
1	4434	366631.464500259635	491
1	4441	367241.816077195135	492
1	4446	367929.539585625781	493
1	4463	369563.722881395398	494
1	4468	369991.223584022401	495
1	4477	370760.278204176603	496
1	4488	371915.121944993762	497
1	4495	372287.591451639337	498
1	4504	373066.598867112798	499
1	4513	373740.411134529886	500
1	4522	374460.073880525333	501
1	4531	375371.594798332108	502
1	4540	375819.986776588513	503
1	4549	376753.695941995858	504
1	4558	377353.758443333237	505
1	4567	378283.90419934879	506
1	4576	379228.437042050092	507
1	4589	380016.113779647304	508
1	4594	380321.176039008452	509
1	4603	381008.694893354578	510
1	4614	381777.447234978927	511
1	4623	382718.363406881719	512
1	4630	383105.273646628513	513
1	4639	383727.165388595341	514
1	4652	385087.31563221666	515
1	4661	385677.374419569997	516
1	4670	386487.191178649692	517
1	4679	387380.790864676265	518
1	4684	387848.897766647888	519
1	4693	388495.821579080103	520
1	4702	389244.154062727494	521
1	4713	389929.467274015798	522
1	4720	390564.88342671658	523
1	4729	391284.036365523963	524
1	4740	392219.736246764689	525
1	4751	393183.045061910554	526
1	4756	393502.696200041129	527
1	4765	394550.212894007593	528
1	4778	395331.551966071158	529
1	4783	396146.997107332602	530
1	4794	396752.528999978706	531
1	4801	397254.811824671954	532
1	4814	398307.658756803751	533
1	4819	398741.542704356864	534
1	4830	399449.931388674334	535
1	4841	400217.018870031491	536
1	4846	400551.524871541217	537
1	4857	401465.273104095861	538
1	4864	402017.601750092611	539
1	4873	402670.352796977416	540
1	4886	403609.101805603162	541
1	4893	404113.41241481717	542
1	4900	404664.257106743783	543
1	4909	405456.40628412369	544
1	4918	406225.707460194857	545
1	4927	406745.828655548425	546
1	4936	407493.570512719484	547
1	4947	408247.821341408448	548
1	4954	408799.887891020657	549
1	4963	409780.50931049514	550
1	4974	410786.50966314602	551
1	4981	411777.106087189199	552
1	4992	412558.861364750222	553
1	4999	412969.901486579359	554
1	5008	413630.92799219306	555
1	5019	414486.781569896297	556
1	5030	415391.638405714215	557
1	5035	415780.548106832461	558
1	5044	416311.953678773747	559
1	5057	417213.021028786928	560
1	5062	417548.94776805307	561
1	5075	418900.762386666641	562
1	5080	419416.577062848986	563
1	5089	420015.346163325042	564
1	5100	420579.636464361132	565
1	5111	421465.839008381621	566
1	5120	422209.79485558349	567
1	5129	423060.700593749092	568
1	5136	423568.02394213158	569
1	5143	424102.15921313505	570
1	5152	424519.373842841045	571
1	5161	425698.769699223371	572
1	5174	426679.620404401824	573
1	5181	427068.714681174636	574
1	5188	427746.836131811172	575
1	5201	428649.912922550023	576
1	5210	429487.16243240054	577
1	5215	429989.457149198309	578
1	5224	430800.517056975544	579
1	5235	431687.658172147379	580
1	5244	432549.052483029694	581
1	5251	433340.684824995726	582
1	5264	434190.956677263633	583
1	5273	434981.25164997767	584
1	5282	435608.016852429167	585
1	5287	436248.514592461318	586
1	5300	437314.093390759111	587
1	5305	437628.755763871626	588
1	5314	438219.412543997199	589
1	5323	438986.558199534223	590
1	5332	439804.774716636196	591
1	5341	440701.770245377005	592
1	5354	441571.42036696899	593
1	5359	441973.454155912653	594
1	5368	442779.754092358084	595
1	5381	443984.16154710579	596
1	5386	444309.555238438801	597
1	5395	445097.344471933351	598
1	5408	445742.188571859182	599
1	5417	446554.213384632052	600
1	5424	447235.285954456807	601
1	5431	447908.807914238454	602
1	5440	448446.105181239577	603
1	5449	449032.063289964603	604
1	5458	449787.684109294818	605
1	5469	450788.993122056157	606
1	5476	451650.567333446846	607
1	5487	452272.436935314939	608
1	5496	452714.169930992678	609
1	5503	453023.265910847143	610
1	5516	454175.040381867469	611
1	5523	454677.41307578984	612
1	5532	455453.817037213625	613
1	5539	455812.189151253583	614
1	5550	457112.520465161683	615
1	5557	457895.693687070193	616
1	5566	458640.364583395452	617
1	5577	459584.286157228084	618
1	5588	460173.777331318738	619
1	5595	460601.31836095828	620
1	5604	461457.408818090366	621
1	5611	462057.953552808644	622
1	5624	463269.313276698845	623
1	5631	463656.774964090469	624
1	5638	464539.517215406555	625
1	5647	465239.841309841755	626
1	5656	466277.409630501676	627
1	5665	466743.514965288374	628
1	5674	467282.517579104785	629
1	5683	468056.762251071665	630
1	5692	468551.423587650094	631
1	5703	469738.950470695306	632
1	5712	470153.031108062748	633
1	5721	471082.696434482965	634
1	5732	471899.305759090964	635
1	5741	472495.168355573003	636
1	5746	472819.094258453731	637
1	5757	473936.466955812682	638
1	5764	474702.391822636162	639
1	5775	475705.692257685621	640
1	5782	476266.560411918943	641
1	5793	477150.904075289181	642
1	5800	477682.336628995872	643
1	5811	478632.407769374585	644
1	5818	479304.093302367291	645
1	5827	480000.562437577209	646
1	5838	480793.042185483537	647
1	5845	481169.945018459148	648
1	5856	482144.632291328198	649
1	5863	482618.361137760839	650
1	5872	483414.247828396074	651
1	5885	484606.244554929472	652
1	5892	485290.326080471314	653
1	5899	485995.958788180761	654
1	5910	486706.625930266491	655
1	5917	487542.183589423112	656
1	5928	488235.523926559872	657
1	5939	489442.014892771877	658
1	5946	490150.355156231709	659
1	5953	490765.206264797636	660
1	5962	491406.627345923371	661
1	5971	492154.130833782293	662
1	5980	492744.676540838592	663
1	5989	493438.668590085618	664
1	5998	494210.62826067213	665
1	6007	494566.233061859422	666
1	6016	495639.265965437555	667
1	6025	496135.035832598844	668
1	6034	496821.513476874718	669
1	6043	497383.588481275403	670
1	6054	498470.965572260359	671
1	6061	498952.432232536414	672
1	6070	499482.832280639597	673
1	6079	500200.07441639904	674
1	6088	501366.382384160572	675
1	6101	502451.853883266487	676
1	6106	502852.934055402913	677
1	6117	503642.016259348058	678
1	6124	504028.626741981172	679
1	6133	505179.298108303957	680
1	6144	506098.609054740556	681
1	6153	506884.766387566963	682
1	6160	507272.984623024279	683
1	6169	508229.299076646605	684
1	6178	509010.910244565496	685
1	6187	509829.36173561033	686
1	6198	510921.559747355098	687
1	6207	511424.189189448992	688
1	6214	512208.33823098805	689
1	6225	512802.773524308617	690
1	6236	513807.465145178179	691
1	6241	514294.211019482503	692
1	6250	515169.531637290532	693
1	6263	515963.114839000668	694
1	6270	516549.401267711114	695
1	6277	516883.875715406652	696
1	6286	517850.824018707539	697
1	6297	518834.267953131388	698
1	6306	519640.102766314562	699
1	6317	520618.956643017049	700
1	6326	521372.589990031014	701
1	6333	522045.114330668042	702
1	6344	522909.487653058062	703
1	6351	523639.254817692603	704
1	6358	524066.804101271595	705
1	6371	525253.283588122617	706
1	6380	525977.787991706322	707
1	6385	526476.567867072339	708
1	6396	527133.187473099719	709
1	6403	527497.371534258167	710
1	6408	528221.670005237724	711
1	6421	529448.274682788219	712
1	6432	530667.534197447862	713
1	6443	531482.274667359929	714
1	6448	531900.201204791706	715
1	6459	532469.435816304799	716
1	6466	532925.658926647197	717
1	6477	533914.406832307618	718
1	6488	534580.931241251569	719
1	6497	535365.027284156572	720
1	6504	535928.926149336662	721
1	6511	536804.507502168458	722
1	6522	537498.348050611135	723
1	6529	538099.446920631494	724
1	6538	538557.870533410501	725
1	6549	539677.765386225697	726
1	6558	540672.289831331041	727
1	6565	541026.760775875341	728
1	6574	541632.276251865593	729
1	6587	542951.062239892822	730
1	6592	543301.447800407227	731
1	6605	544555.861311731902	732
1	6614	545282.472897134763	733
1	6619	545633.97650071424	734
1	6630	546670.299674430904	735
1	6637	547346.330098388759	736
1	6648	548144.956653798041	737
1	6659	548994.380560610486	738
1	6664	549341.635881783483	739
1	6677	550436.136078648312	740
1	6682	550924.935737298844	741
1	6693	552002.766480948819	742
1	6702	552726.713696122212	743
1	6713	553690.789657831235	744
1	6722	554506.93017560993	745
1	6731	555251.328578917353	746
1	6738	555969.452676968692	747
1	6749	556776.143972156612	748
1	6754	557441.227132827086	749
1	6765	558059.103071177421	750
1	6776	558728.511555120392	751
1	6783	559155.614333599849	752
1	6792	560062.800592370374	753
1	6803	560934.967831475704	754
1	6810	561449.997253390073	755
1	6819	562249.607398873239	756
1	6826	562617.982601188167	757
1	6837	563502.484888862863	758
1	6844	563969.153021229476	759
1	6853	564571.305498154878	760
1	6862	565712.766289617911	761
1	6873	566711.476451950192	762
1	6880	567438.963130395904	763
1	6891	568243.842042842924	764
1	6900	568866.64405879569	765
1	6907	569706.750464625701	766
1	6916	570209.60633028303	767
1	6929	571083.580427756578	768
1	6936	571778.397178603381	769
1	6947	572548.406434804246	770
1	6956	572980.708290031225	771
1	6963	573510.72300067176	772
1	6972	574615.884599648461	773
1	6979	575007.658074516848	774
1	6992	575977.794328378558	775
1	7001	576788.51167489779	776
1	7010	577510.128787206531	777
1	7017	578191.541054472372	778
1	7028	578943.078068643853	779
1	7037	579635.984463058457	780
1	7044	580343.927560793281	781
1	7051	580777.868313621775	782
1	7064	581706.954089691907	783
1	7071	582170.915759727403	784
1	7080	582884.745991649151	785
1	7087	583363.099357998043	786
1	7096	584390.452486323238	787
1	7107	585534.984322730497	788
1	7116	586259.023877559275	789
1	7123	586966.407307377131	790
1	7134	587946.711207646922	791
1	7141	588430.104094091849	792
1	7152	589400.293576112063	793
1	7159	589911.730755586223	794
1	7168	590782.205808023036	795
1	7179	591809.594879625411	796
1	7188	592399.31710241367	797
1	7199	593279.726021178113	798
1	7204	593883.025195403071	799
1	7213	594348.287694621877	800
1	7222	595220.638027461293	801
1	7235	596481.288106413606	802
1	7240	596839.430301776204	803
1	7251	597560.09601918054	804
1	7262	598333.297366043601	805
1	7269	598888.681195909206	806
1	7276	599348.763729538817	807
1	7285	599924.21790207741	808
1	7296	600962.254849216019	809
1	7307	601681.12935880204	810
1	7312	602255.819899449174	811
1	7323	603066.806834098001	812
1	7330	603404.639879381333	813
1	7341	604496.918762521868	814

