version 2
run Pipelined_3Teachers-38-20190105-10:57:26-27568
attr configname Pipelined_3Teachers
attr datetime 20190105-10:57:26
attr experiment Pipelined_3Teachers
attr inifile ../simulations/omnetpp.ini
attr iterationvars "$0=\"uniform\""
attr iterationvarsf uniform-
attr measurement "$0=\"uniform\""
attr network PipelinedExamSession
attr processid 27568
attr repetition 38
attr replication #38
attr resultdir results
attr runnumber 38
attr seedset 38
param **.teachersNumber 3
param **.answerTimeDistribution "\"uniform\""
param **.minUniform 300
param **.maxUniform 900
param **.scaleLognormal 6.2854
param **.shapeLognormal 0.4724

vector 0 PipelinedExamSession examinationTime:vector ETV
attr source examFinished
vector 1 PipelinedExamSession studentID:vector ETV
attr source student
0	3136	260080.359559552769	1584.7205055412
0	3149	261355.065299710284	2411.9697641116
0	3154	261786.191439488928	2049.9855316244
0	3167	262943.752501253064	2455.0106184091
0	3174	263365.52844587716	2010.4631461669
0	3185	264296.703781932617	2248.693233775
0	3190	264677.110232273141	1733.3577310201
0	3203	265832.699380209695	2394.1959919408
0	3212	266594.825643952962	2298.1218620203
0	3217	266895.807707402881	1719.0558606293
0	3230	268197.498197900158	2364.7988176905
0	3235	268551.240214286399	1956.4145703334
0	3244	269288.896243181106	1901.7529801
0	3255	270154.72341701391	1957.2252191138
0	3266	271039.301194902536	2119.0977310762
0	3271	271589.932001894366	1882.7365641017
0	3284	272651.614801911664	2405.7285172865
0	3289	273036.708929250044	1997.4077343475
0	3298	273817.160827573416	2028.5155481659
0	3309	274750.203692028326	2098.5888901167
0	3318	275581.814882392091	2133.0743228551
0	3327	276473.530045710531	2462.5013486948
0	3336	277172.460204362896	2389.2374580726
0	3345	278020.899536088137	2403.6938130856
0	3354	278777.560665830998	2273.2031207532
0	3363	279651.088841166376	2422.5572413299
0	3370	280114.371637115284	1996.1489770096
0	3383	281106.645112205326	2203.9410714526
0	3390	281634.772258484765	1935.3392045014
0	3401	282614.797792118072	2075.3759874031
0	3406	282919.971230300173	1813.3261180948
0	3419	284356.576912757038	2463.6412801221
0	3426	285057.081727450742	2442.2839353327
0	3433	285719.183803349762	2228.3013798762
0	3442	286578.452559560567	2221.8756468035
0	3451	287385.934848105564	2175.7310827263
0	3460	287933.089617546677	1827.1165193059
0	3473	288329.352446598962	1393.0291037075
0	3478	288785.90805195275	1146.634437656
0	3489	289794.284277688742	1801.3878354337
0	3498	290691.145958192677	2361.7935115937
0	3505	291185.229656752229	2001.6598316375
0	3514	291900.097598461465	1939.5857518539
0	3523	292564.12900867875	1732.3032097891
0	3534	293346.735835354806	1807.3473268189
0	3541	293691.010357858644	1329.0278694592
0	3550	294699.885423481495	1863.4562568739
0	3561	295907.202646415712	2304.4589047786
0	3570	296654.629419045554	2262.3161578551
0	3577	297135.79731071371	1939.7873260081
0	3590	298321.60972240384	2373.5920506064
0	3597	298984.518769243763	2217.5552491564
0	3604	299518.509414559261	1883.1109335646
0	3613	300044.091203436286	1722.4814810324
0	3622	301224.817168666081	2075.2116606105
0	3633	301823.150922451199	1858.5032568779
0	3640	302174.602569406883	1319.750663219
0	3651	303121.287309145586	1648.0665436015
0	3658	303550.175656098904	1691.2231503055
0	3671	304788.911595242129	2447.3736282438
0	3680	305457.027587201477	2321.0332574788
0	3689	306317.226500669525	2281.8675425369
0	3696	306879.753405042023	2090.8418097999
0	3705	307623.975496552915	2166.9479093514
0	3712	308146.139823412553	1828.913322743
0	3721	309191.56061843972	1991.4243021514
0	3730	309885.401585837856	2126.5511818696
0	3743	310745.350988768071	2193.8388301525
0	3752	311424.206178355992	1990.4960756656
0	3757	311964.532939950034	1707.1556301322
0	3768	312697.915774025053	1952.564785257
0	3779	313561.367894941971	2137.161716586
0	3788	314329.95301829654	2338.5849970859
0	3793	314833.433596417338	2122.9622984771
0	3802	315532.728385319963	1971.360490378
0	3811	316366.187480511174	2036.2344622146
0	3824	317490.028655994713	2269.324109517
0	3829	317912.553580803826	1955.7657082099
0	3842	318872.3793530837	2103.1002191361
0	3849	319636.555520771101	2146.5268647764
0	3858	320345.528750494152	2200.2037590835
0	3869	321244.039411051228	2371.6600579675
0	3874	321673.138127848535	2005.6398273446
0	3885	322476.600029412686	2025.3947914112
0	3892	322780.619382765173	1536.5799717139
0	3901	323966.812012391194	2236.6157465614
0	3910	324594.122524140432	2082.8757176176
0	3919	325206.182783050492	1858.897616202
0	3928	325961.702641518816	1749.0259211976
0	3939	327278.014939511225	2403.3334179316
0	3946	327692.085777316273	2086.9617878459
0	3959	328604.945557611093	2201.1319591664
0	3964	328986.10525354746	1692.6447185688
0	3973	329606.031141383604	1891.598551115
0	3982	330681.276205088974	2076.3306474779
0	3991	331500.907149212465	2112.0603425894
0	4000	332394.898290373416	2169.1768046469
0	4009	333155.127366632254	2122.5106418598
0	4018	333795.043214410575	1971.2869085837
0	4027	334722.539253719182	2029.4296579901
0	4040	335523.795483866738	2031.1102963518
0	4045	335875.753874424877	1729.4312445447
0	4054	336332.139851991119	1467.4963461701
0	4059	336822.231466183471	1298.4359823167
0	4072	337708.858400490167	1705.3868120536
0	4081	339067.244176100972	2171.9513273332
0	4090	339789.728196663815	2119.9468398001
0	4103	340602.437030430916	2097.2464229912
0	4110	341191.205574525553	1808.2735079806
0	4121	342039.447884727302	2108.030224219
0	4126	342676.966808689791	2074.5297782589
0	4135	343230.710812658105	2008.4084630013
0	4144	344012.228906806592	1972.7810220793
0	4153	344520.785502903196	1722.0357574057
0	4164	345215.502725774455	1717.6355260424
0	4171	345530.3547156975	1342.1410858165
0	4180	346645.668946579131	1821.9327317085
0	4189	347399.189046816934	2098.4111399855
0	4202	348230.327167734537	2074.2627318017
0	4211	349001.226016972247	2322.8849954903
0	4216	349321.623195335302	1872.9979706928
0	4225	350283.802493289147	2053.4753255546
0	4238	351300.186538556624	2298.9605215844
0	4245	351858.983183512498	2097.0424017403
0	4252	352417.329305363853	1804.856817238
0	4261	353280.720482021604	1980.533943465
0	4270	353711.22117089111	1642.9806462955
0	4279	354562.63535250913	1696.5648011304
0	4288	355338.639249186996	1736.2406733446
0	4297	356154.902161611277	1734.4059127383
0	4306	357149.278550734777	2096.8876108993
0	4319	358357.188889011775	2564.0686310828
0	4324	358810.951493633945	2143.7343176454
0	4333	359336.140301311423	1818.0035894271
0	4346	360608.00351640213	2250.8146273904
0	4355	361208.869568305125	2220.1072426513
0	4362	362052.20904196616	2211.3556001801
0	4373	362720.361284120044	2112.3577677179
0	4380	363221.057193959168	2012.187625654
0	4387	363691.322601260654	1600.1437661704
0	4400	364796.60386908803	2076.242584968
0	4409	365625.255802553183	2171.4449947234
0	4418	366473.617786495051	2400.1246341504
0	4425	366910.947853652796	2114.3439845648
0	4428	367222.021718602663	1596.7659160495
0	4441	368501.444177515841	2027.8263910208
0	4452	369162.109100120179	1890.8855372574
0	4459	369528.175524389408	1644.7457859758
0	4472	370833.610322931818	2216.8241555337
0	4481	371477.622965863011	2235.6136411428
0	4490	372220.634042378552	2125.6166025996
0	4497	372894.466316979416	2060.8559940476
0	4508	373708.993612322994	2231.37064646
0	4517	374208.658137917556	1988.024095539
0	4524	374884.587130649053	1846.8272551429
0	4531	375318.858737312295	1609.8651249893
0	4544	376464.315775455944	2255.6576375384
0	4551	376984.968438791148	1997.7052344941
0	4558	377519.958000490479	1925.504929712
0	4567	377938.615059061013	1474.2992836051
0	4578	379120.944521762467	1967.2915576492
0	4587	379861.203276179767	2224.556792574
0	4594	380441.806266456878	2047.7183571551
0	4603	381312.053861003405	2067.1447978355
0	4612	382071.14092377018	1999.5318228845
0	4625	383138.557844376228	2169.9587782379
0	4634	383941.415579337663	2511.4534301218
0	4639	384478.713049879334	2217.3415380064
0	4650	385316.871553938872	2178.3137095626
0	4661	386118.928057188204	2177.5124778505
0	4666	386654.411621158978	1889.074888872
0	4675	387263.025723025239	1870.2215306461
0	4686	388434.524652035943	2315.5965948477
0	4697	389332.873983169011	2441.1173951346
0	4704	389970.416950201652	2319.7119235061
0	4713	390868.358223326541	2377.8552620206
0	4722	391608.33536717113	2275.4613840021
0	4729	392306.665774248577	2197.751825396
0	4742	393054.049456771499	2107.6271435246
0	4751	393951.50127690289	2308.3790837321
0	4760	394850.66311997365	2482.2034327313
0	4765	395199.615655839478	2145.566199068
0	4774	396052.891840366682	2101.3905634638
0	4787	397130.009636795184	2279.3465168215
0	4794	397950.845822319424	2230.3555355407
0	4803	398665.04586981613	2266.0390002653
0	4810	399149.397406540846	2019.3877697457
0	4823	400088.890436338297	2125.3372496925
0	4830	400694.869168521873	1843.9194726292
0	4837	401146.679362608156	1815.9424464684
0	4850	402249.537559552155	2160.6471232139
0	4857	402810.839866194911	1928.8151554763
0	4864	403483.345977589525	1708.3213521168
0	4873	403895.161987748034	1645.6244281959
0	4886	405305.210969829969	2243.4624368325
0	4891	405724.944041250311	1885.6319332961
0	4902	406677.302746893876	2095.7870918792
0	4911	407494.870047178157	2189.6590773482
0	4918	407825.869917171114	1708.8415324688
0	4929	409344.965841807463	2502.3732519709
0	4938	410001.852626167276	2261.5706101991
0	4945	410866.25582333658	2233.3211073652
0	4954	411737.576161231884	2259.1967420653
0	4963	412289.691596757659	1917.2084322665
0	4974	413235.434715449848	2056.2178036664
0	4981	413625.420588534363	1780.330179166
0	4990	414398.490938404613	1819.3430966232
0	5001	415406.571618653873	2005.6893209461
0	5008	416280.909222085069	2195.6500058994
0	5017	416872.28225232106	1927.1430367604
0	5026	417818.166548246558	2022.0093693584
0	5037	418698.208427522372	2217.4797776621
0	5046	419382.141459267627	2025.1896845642
0	5053	419815.290965884964	1747.9052256793
0	5064	421084.637790732126	2255.8403971139
0	5073	421834.908215096261	2114.9899186101
0	5084	422642.612794367637	2126.9307801034
0	5091	423184.794652042951	1893.3188907802
0	5098	423621.893933415453	1689.9787367787
0	5107	424687.894756766077	2045.2819623984
0	5120	425766.297997394618	2237.2687307652
0	5129	426552.764566429001	2205.9604353737
0	5138	427140.531685715583	2171.0087774321
0	5145	427454.890069132713	1688.5920717381
0	5152	428673.94899716605	2121.184430737
0	5163	429254.43356651817	2113.9018808026
0	5170	429791.828491352541	1888.2987337187
0	5179	430510.596935078545	1722.7001379244
0	5190	431581.84271254581	2185.1802195422
0	5197	431974.303127965001	1710.8012668323
0	5206	432604.41500823949	1517.2168044839
0	5215	433200.270200148266	1486.2875045277
0	5228	434524.044134141919	2204.4699857477
0	5233	434846.229483699468	1938.0560686346
0	5244	435740.574222570327	2025.0023433007
0	5255	436638.045910326805	2114.0017761849
0	5264	437247.677389718633	1989.3981371541
0	5271	437805.762871122029	2021.2819518987
0	5278	438174.234823789489	1536.1889134627
0	5287	439164.732603309718	1917.0552135911
0	5300	440155.68640055139	2343.4158530552
0	5307	440585.947246989276	1964.3381687813
0	5316	441326.050351001363	2005.6751172524
0	5327	442167.856516270008	2012.1701157186
0	5332	442806.424607802224	1922.7885279804
0	5341	443401.449287217151	1795.4576828051
0	5352	444709.550911327865	2541.6943950579
0	5361	445410.061131510925	2359.6829549409
0	5372	446270.39433270697	2330.0615899265
0	5381	447038.007815927309	2295.2425314579
0	5390	447699.427398853046	2247.7181805298
0	5395	448462.321385974107	2191.9270532671
0	5408	449208.668347494719	2170.6605315674
0	5413	449753.8293757942	2054.4019769412
0	5426	450725.447611184833	2146.7141037807
0	5435	451512.593719968615	2303.9253724739
0	5440	451858.906847890509	1832.3391901329
0	5449	452720.982854068322	1995.5352428835
0	5460	453844.473357265859	2331.8796372972
0	5469	454571.025238512127	2333.4534735885
0	5478	455232.475133054002	2207.3438506108
0	5485	455583.289688732519	1673.3882306144
0	5498	456681.517999107062	1879.7044244595
0	5505	457464.870654232844	2213.7551941909
0	5516	458324.822015315338	2223.9482339937
0	5525	458893.130460614382	2211.6124615073
0	5530	459311.917290743484	1743.7976452522
0	5541	460268.601756077303	1943.779740762
0	5548	460625.022957567169	1731.8924969528
0	5561	461703.903935942842	2068.1759747677
0	5568	462117.018697690262	1604.6936424449
0	5575	462763.83270453666	1658.7106595747
0	5586	463982.439247425689	2278.5353114828
0	5593	464455.029255151793	1898.2013489585
0	5606	465279.696661932438	1918.0024968926
0	5613	465928.227630397349	1790.7335801516
0	5624	467011.16601498802	2369.4897141773
0	5631	467491.916337003976	2212.2196750715
0	5638	468032.236620504454	1907.8849084675
0	5647	468667.967212619305	1656.8011976313
0	5658	469624.117619823709	1772.0156434458
0	5665	470072.379470150962	1634.293371113
0	5678	471333.690965781033	2255.3834938444
0	5683	471643.172600772277	1954.711927101
0	5696	472637.526440201372	2060.2816270664
0	5705	473440.536983823449	2106.8460180424
0	5710	473782.736172108025	2044.9753715191
0	5719	474585.87802983825	1948.3515896369
0	5730	475474.714012770028	2034.1770289466
0	5741	476416.972248069988	2252.9306581244
0	5748	476874.840562976943	2027.3494149093
0	5755	477529.083212558226	1977.1483926103
0	5766	478544.568928051786	2127.5966799818
0	5777	479733.692724024923	2441.6020788252
0	5784	480293.628773605497	2268.7028815504
0	5791	480967.633837228687	2068.6720047612
0	5802	481852.376825641887	2118.684101617
0	5813	482554.668112378614	2164.3686757889
0	5820	483136.643799534114	1858.6055091117
0	5829	483629.124197736429	1649.4238799438
0	5838	484213.527105795266	1658.8589934167
0	5845	484618.831932311924	1457.024749741
0	5854	485594.618119904819	1780.4004839156
0	5865	486346.880797902169	1981.0246126726
0	5872	486816.888109641196	1588.4043790866
0	5881	487724.370061839046	1798.8631487824
0	5890	488385.083586908923	1869.1440139431
0	5899	488966.187792783649	1792.777166795
0	5910	489712.916484195785	1694.4488100708
0	5917	490093.728340370626	1436.2539645284
0	5930	491234.391503362031	2227.7059804648
0	5939	491750.936073018284	1992.0379689429
0	5946	492215.570830553816	1717.6010435913
0	5953	492767.281885910825	1532.8903825488
0	5964	493706.846095807897	1955.9100227896
0	5971	494111.028907494666	1858.4837512113
0	5980	495201.745449844794	2112.5453312416
0	5991	496235.5926600751	2320.5453783274
0	5998	496787.973274011211	1988.6429423466
0	6009	497813.68113448848	2159.9611581769
0	6016	498483.712125197099	2151.3907577377
0	6025	499313.866404304326	2267.2096723225
0	6036	500198.446210054726	2280.2425952163
0	6045	500673.615203658164	1943.2463651989
0	6056	501440.030328556941	2042.1943803784
0	6065	502165.515203448058	1904.4889335986
0	6074	503031.223167758481	2342.2393212095
0	6081	503517.68325171438	2077.6529231574
0	6088	503919.836888322653	1754.3216848746
0	6097	505005.826496752025	1974.6033289935
0	6106	505569.056788785429	1961.7920771241
0	6115	506586.949663655879	2135.0911849178
0	6128	507338.239186070906	2058.3888597786
0	6133	507678.77724152063	1546.6488408856
0	6146	509039.981412794487	2162.2152627446
0	6151	509453.543030982883	2115.303844912
0	6162	510518.372121965559	2349.4365687948
0	6171	511288.486327836336	2248.5049150418
0	6178	511602.016507275449	1707.3043252341
0	6189	512492.42553915833	1777.6158152148
0	6196	512795.997858792589	1443.3092042338
0	6209	514132.703529344917	2204.8756152391
0	6216	514741.84132777159	2018.226635037
0	6225	515595.774969505192	2213.5440311395
0	6232	516205.682732770265	2072.9792034253
0	6243	517104.670546716125	2109.2962960247
0	6250	517545.383914327295	1902.9854009394
0	6263	518766.083456296519	2265.1652266737
0	6272	519594.870120892347	2429.2189498432
0	6277	520245.589569909544	2300.2859010827
0	6286	520738.0168053322	1971.9333490357
0	6299	522082.63468877417	2487.7645678818
0	6306	522725.444675842346	2231.361004198
0	6313	523448.172607692005	2181.2049734406
0	6326	524656.70701093045	2574.0723221563
0	6333	525447.18888038774	2481.0271699447
0	6344	526231.396863190504	2388.8622726314
0	6351	526791.42965180804	2134.7226408776
0	6360	527351.398098561959	1795.4499664251
0	6371	528221.372386487247	1989.9755232967
0	6378	528857.640747819142	1943.408824224
0	6387	529581.255056010605	2115.2028908953
0	6398	530376.966247335122	2155.5938608479
0	6405	530813.883894542278	1898.443756951
0	6412	531626.078014634595	1926.4695790596
0	6425	532496.844462398485	2119.8782150634
0	6430	532965.260735107631	1891.7222445365
0	6439	533994.69287814577	2214.4374587573
0	6448	534491.999895265371	1995.1554328669
0	6457	534926.203572889836	1636.7547242437
0	6466	535814.889576751785	1650.9543560911
0	6477	536882.368569821165	2274.8943180777
0	6484	537322.738885832996	1845.1263719704
0	6495	538493.943132692993	2210.1186075713
0	6502	539138.140121335209	2103.5113139078
0	6513	540007.746494282083	2164.0024680644
0	6524	540933.501533372373	2280.1842852496
0	6533	541567.299344530374	2289.5038263872
0	6538	542100.141017697796	2022.8876466863
0	6547	542655.900884745688	1722.3993513733
0	6558	543349.432967277289	1782.1336227469
0	6569	544265.95999631104	1991.1660932936
0	6576	544808.347202930645	2019.8845166713
0	6585	545628.56180858803	2086.3316971343
0	6596	546483.149494556757	2217.1894982457
0	6603	546895.415303763049	1869.7798137087
0	6610	547747.669690009253	1838.9791068155
0	6621	548360.710951639386	1877.5614570826
0	6628	548960.22457857621	1942.4205795396
0	6641	549915.173820639076	2095.136278728
0	6646	550269.623151188763	1714.6760273259
0	6655	551070.76855539349	1765.1484956034
0	6666	551899.065081356141	1983.8912607171
0	6673	552722.098667454022	1961.6039127577
0	6684	553165.790185472044	1736.2964259926
0	6693	554046.019289502921	2020.7881250884
0	6700	554586.773181706715	1826.4288887847
0	6711	555429.577825265054	1788.2820548024
0	6718	555817.421033838813	1576.2026977725
0	6731	557185.594642208938	2224.8807191849
0	6740	557937.30444414546	2457.1141575929
0	6747	558499.260084936444	2165.5177954584
0	6754	559017.331050150145	1831.7364079412
0	6765	560304.556904453833	2367.2524603084
0	6772	561023.587388545324	2393.0984375998
0	6781	561690.442111529459	2230.4760431405
0	6792	562531.399790709888	2213.0127898883
0	6799	563254.896939313089	2074.0572720766
0	6812	564285.30730213975	2282.5900870375
0	6821	565033.457596879503	2163.1306804251
0	6826	565390.152119798636	1892.4822949804
0	6837	566151.601951243406	1866.2946491037
0	6844	566523.830335680446	1490.3727388009
0	6849	567113.877179101161	1334.6957277507
0	6862	568390.796285541779	1991.3515871856
0	6873	569484.903106978214	2209.4856902026
0	6880	570003.176228469289	2006.5329410601
0	6891	570971.530286455578	2245.4265267123
0	6900	571546.082035359046	2002.9057905078
0	6907	571875.220568385026	1455.7066356763
0	6916	572525.131355691752	1536.6043073125
0	6929	573455.649949796549	1674.6851149946
0	6936	574190.756758488766	1966.4296281058
0	6945	574951.447220100141	2263.3051493671
0	6956	575951.523251831583	2495.873302035
0	6961	576351.384210074372	2021.4045896195
0	6970	576996.65069715125	1909.5031469129
0	6981	577769.273110991396	1817.7498591598
0	6988	578249.290607823111	1605.6307760999
0	6997	579200.946331350184	1785.637751827
0	7008	579659.370050160266	1603.9008872118
0	7015	580194.525892054714	1309.6980726812
0	7028	581140.53184404043	1812.8162087873
0	7035	581580.180632136813	1846.0267991759
0	7044	582337.588233500771	1971.4875165839
0	7055	583164.11682511685	2023.5849810764
0	7060	583929.193149553664	1936.4111691713
0	7071	584705.569813773088	2233.8459438644
0	7078	585269.428967451729	2105.3121423349
0	7091	585824.408213049225	1853.0049195047
0	7096	586348.78563755197	1599.4614648633
0	7107	587458.703822549484	2092.2138541471
0	7116	587851.900294795684	2027.4920817465
0	7125	588486.350201815418	1798.777350923
0	7134	589128.292723791725	1626.1720912065
0	7145	590161.435771733574	2217.4253395759
0	7150	590463.227585284091	1806.8415387534
0	7161	591444.693913869611	2049.7598825488
0	7170	592043.042205926082	1881.6064341925
0	7177	592810.277982009627	1774.781257147
0	7188	593454.286412615381	1970.7475572824
0	7195	593781.023909803532	1552.3351239972
0	7204	595254.63574700994	2220.8271576092
0	7213	595840.937527455442	2186.2261797767
0	7224	596287.309187511034	1764.8208182305
0	7235	596990.044096252002	1568.8093888108
0	7244	597844.81211062526	1905.7906231843
0	7253	598697.817104123585	2361.1914577894
0	7262	599498.090194165759	2508.0460979138
0	7267	599862.501387018763	2017.6892763935
0	7278	600744.118242105521	2046.3011379819
0	7287	601533.120197709702	2035.0300035439
0	7298	602170.4114303459	2064.1420736443
0	7303	602819.349034270324	1901.2797427364
0	7316	603729.771172022499	2148.5100902617
0	7323	604194.721013121359	2024.3095827755
1	3136	260080.359559552769	347
1	3149	261355.065299710284	348
1	3154	261786.191439488928	349
1	3167	262943.752501253064	350
1	3174	263365.52844587716	351
1	3185	264296.703781932617	352
1	3190	264677.110232273141	353
1	3203	265832.699380209695	354
1	3212	266594.825643952962	355
1	3217	266895.807707402881	356
1	3230	268197.498197900158	357
1	3235	268551.240214286399	358
1	3244	269288.896243181106	359
1	3255	270154.72341701391	360
1	3266	271039.301194902536	361
1	3271	271589.932001894366	362
1	3284	272651.614801911664	363
1	3289	273036.708929250044	364
1	3298	273817.160827573416	365
1	3309	274750.203692028326	366
1	3318	275581.814882392091	367
1	3327	276473.530045710531	368
1	3336	277172.460204362896	369
1	3345	278020.899536088137	370
1	3354	278777.560665830998	371
1	3363	279651.088841166376	372
1	3370	280114.371637115284	373
1	3383	281106.645112205326	374
1	3390	281634.772258484765	375
1	3401	282614.797792118072	376
1	3406	282919.971230300173	377
1	3419	284356.576912757038	378
1	3426	285057.081727450742	379
1	3433	285719.183803349762	380
1	3442	286578.452559560567	381
1	3451	287385.934848105564	382
1	3460	287933.089617546677	383
1	3473	288329.352446598962	384
1	3478	288785.90805195275	385
1	3489	289794.284277688742	386
1	3498	290691.145958192677	387
1	3505	291185.229656752229	388
1	3514	291900.097598461465	389
1	3523	292564.12900867875	390
1	3534	293346.735835354806	391
1	3541	293691.010357858644	392
1	3550	294699.885423481495	393
1	3561	295907.202646415712	394
1	3570	296654.629419045554	395
1	3577	297135.79731071371	396
1	3590	298321.60972240384	397
1	3597	298984.518769243763	398
1	3604	299518.509414559261	399
1	3613	300044.091203436286	400
1	3622	301224.817168666081	401
1	3633	301823.150922451199	402
1	3640	302174.602569406883	403
1	3651	303121.287309145586	404
1	3658	303550.175656098904	405
1	3671	304788.911595242129	406
1	3680	305457.027587201477	407
1	3689	306317.226500669525	408
1	3696	306879.753405042023	409
1	3705	307623.975496552915	410
1	3712	308146.139823412553	411
1	3721	309191.56061843972	412
1	3730	309885.401585837856	413
1	3743	310745.350988768071	414
1	3752	311424.206178355992	415
1	3757	311964.532939950034	416
1	3768	312697.915774025053	417
1	3779	313561.367894941971	418
1	3788	314329.95301829654	419
1	3793	314833.433596417338	420
1	3802	315532.728385319963	421
1	3811	316366.187480511174	422
1	3824	317490.028655994713	423
1	3829	317912.553580803826	424
1	3842	318872.3793530837	425
1	3849	319636.555520771101	426
1	3858	320345.528750494152	427
1	3869	321244.039411051228	428
1	3874	321673.138127848535	429
1	3885	322476.600029412686	430
1	3892	322780.619382765173	431
1	3901	323966.812012391194	432
1	3910	324594.122524140432	433
1	3919	325206.182783050492	434
1	3928	325961.702641518816	435
1	3939	327278.014939511225	436
1	3946	327692.085777316273	437
1	3959	328604.945557611093	438
1	3964	328986.10525354746	439
1	3973	329606.031141383604	440
1	3982	330681.276205088974	441
1	3991	331500.907149212465	442
1	4000	332394.898290373416	443
1	4009	333155.127366632254	444
1	4018	333795.043214410575	445
1	4027	334722.539253719182	446
1	4040	335523.795483866738	447
1	4045	335875.753874424877	448
1	4054	336332.139851991119	449
1	4059	336822.231466183471	450
1	4072	337708.858400490167	451
1	4081	339067.244176100972	452
1	4090	339789.728196663815	453
1	4103	340602.437030430916	454
1	4110	341191.205574525553	455
1	4121	342039.447884727302	456
1	4126	342676.966808689791	457
1	4135	343230.710812658105	458
1	4144	344012.228906806592	459
1	4153	344520.785502903196	460
1	4164	345215.502725774455	461
1	4171	345530.3547156975	462
1	4180	346645.668946579131	463
1	4189	347399.189046816934	464
1	4202	348230.327167734537	465
1	4211	349001.226016972247	466
1	4216	349321.623195335302	467
1	4225	350283.802493289147	468
1	4238	351300.186538556624	469
1	4245	351858.983183512498	470
1	4252	352417.329305363853	471
1	4261	353280.720482021604	472
1	4270	353711.22117089111	473
1	4279	354562.63535250913	474
1	4288	355338.639249186996	475
1	4297	356154.902161611277	476
1	4306	357149.278550734777	477
1	4319	358357.188889011775	478
1	4324	358810.951493633945	479
1	4333	359336.140301311423	480
1	4346	360608.00351640213	481
1	4355	361208.869568305125	482
1	4362	362052.20904196616	483
1	4373	362720.361284120044	484
1	4380	363221.057193959168	485
1	4387	363691.322601260654	486
1	4400	364796.60386908803	487
1	4409	365625.255802553183	488
1	4418	366473.617786495051	489
1	4425	366910.947853652796	490
1	4428	367222.021718602663	491
1	4441	368501.444177515841	492
1	4452	369162.109100120179	493
1	4459	369528.175524389408	494
1	4472	370833.610322931818	495
1	4481	371477.622965863011	496
1	4490	372220.634042378552	497
1	4497	372894.466316979416	498
1	4508	373708.993612322994	499
1	4517	374208.658137917556	500
1	4524	374884.587130649053	501
1	4531	375318.858737312295	502
1	4544	376464.315775455944	503
1	4551	376984.968438791148	504
1	4558	377519.958000490479	505
1	4567	377938.615059061013	506
1	4578	379120.944521762467	507
1	4587	379861.203276179767	508
1	4594	380441.806266456878	509
1	4603	381312.053861003405	510
1	4612	382071.14092377018	511
1	4625	383138.557844376228	512
1	4634	383941.415579337663	513
1	4639	384478.713049879334	514
1	4650	385316.871553938872	515
1	4661	386118.928057188204	516
1	4666	386654.411621158978	517
1	4675	387263.025723025239	518
1	4686	388434.524652035943	519
1	4697	389332.873983169011	520
1	4704	389970.416950201652	521
1	4713	390868.358223326541	522
1	4722	391608.33536717113	523
1	4729	392306.665774248577	524
1	4742	393054.049456771499	525
1	4751	393951.50127690289	526
1	4760	394850.66311997365	527
1	4765	395199.615655839478	528
1	4774	396052.891840366682	529
1	4787	397130.009636795184	530
1	4794	397950.845822319424	531
1	4803	398665.04586981613	532
1	4810	399149.397406540846	533
1	4823	400088.890436338297	534
1	4830	400694.869168521873	535
1	4837	401146.679362608156	536
1	4850	402249.537559552155	537
1	4857	402810.839866194911	538
1	4864	403483.345977589525	539
1	4873	403895.161987748034	540
1	4886	405305.210969829969	541
1	4891	405724.944041250311	542
1	4902	406677.302746893876	543
1	4911	407494.870047178157	544
1	4918	407825.869917171114	545
1	4929	409344.965841807463	546
1	4938	410001.852626167276	547
1	4945	410866.25582333658	548
1	4954	411737.576161231884	549
1	4963	412289.691596757659	550
1	4974	413235.434715449848	551
1	4981	413625.420588534363	552
1	4990	414398.490938404613	553
1	5001	415406.571618653873	554
1	5008	416280.909222085069	555
1	5017	416872.28225232106	556
1	5026	417818.166548246558	557
1	5037	418698.208427522372	558
1	5046	419382.141459267627	559
1	5053	419815.290965884964	560
1	5064	421084.637790732126	561
1	5073	421834.908215096261	562
1	5084	422642.612794367637	563
1	5091	423184.794652042951	564
1	5098	423621.893933415453	565
1	5107	424687.894756766077	566
1	5120	425766.297997394618	567
1	5129	426552.764566429001	568
1	5138	427140.531685715583	569
1	5145	427454.890069132713	570
1	5152	428673.94899716605	571
1	5163	429254.43356651817	572
1	5170	429791.828491352541	573
1	5179	430510.596935078545	574
1	5190	431581.84271254581	575
1	5197	431974.303127965001	576
1	5206	432604.41500823949	577
1	5215	433200.270200148266	578
1	5228	434524.044134141919	579
1	5233	434846.229483699468	580
1	5244	435740.574222570327	581
1	5255	436638.045910326805	582
1	5264	437247.677389718633	583
1	5271	437805.762871122029	584
1	5278	438174.234823789489	585
1	5287	439164.732603309718	586
1	5300	440155.68640055139	587
1	5307	440585.947246989276	588
1	5316	441326.050351001363	589
1	5327	442167.856516270008	590
1	5332	442806.424607802224	591
1	5341	443401.449287217151	592
1	5352	444709.550911327865	593
1	5361	445410.061131510925	594
1	5372	446270.39433270697	595
1	5381	447038.007815927309	596
1	5390	447699.427398853046	597
1	5395	448462.321385974107	598
1	5408	449208.668347494719	599
1	5413	449753.8293757942	600
1	5426	450725.447611184833	601
1	5435	451512.593719968615	602
1	5440	451858.906847890509	603
1	5449	452720.982854068322	604
1	5460	453844.473357265859	605
1	5469	454571.025238512127	606
1	5478	455232.475133054002	607
1	5485	455583.289688732519	608
1	5498	456681.517999107062	609
1	5505	457464.870654232844	610
1	5516	458324.822015315338	611
1	5525	458893.130460614382	612
1	5530	459311.917290743484	613
1	5541	460268.601756077303	614
1	5548	460625.022957567169	615
1	5561	461703.903935942842	616
1	5568	462117.018697690262	617
1	5575	462763.83270453666	618
1	5586	463982.439247425689	619
1	5593	464455.029255151793	620
1	5606	465279.696661932438	621
1	5613	465928.227630397349	622
1	5624	467011.16601498802	623
1	5631	467491.916337003976	624
1	5638	468032.236620504454	625
1	5647	468667.967212619305	626
1	5658	469624.117619823709	627
1	5665	470072.379470150962	628
1	5678	471333.690965781033	629
1	5683	471643.172600772277	630
1	5696	472637.526440201372	631
1	5705	473440.536983823449	632
1	5710	473782.736172108025	633
1	5719	474585.87802983825	634
1	5730	475474.714012770028	635
1	5741	476416.972248069988	636
1	5748	476874.840562976943	637
1	5755	477529.083212558226	638
1	5766	478544.568928051786	639
1	5777	479733.692724024923	640
1	5784	480293.628773605497	641
1	5791	480967.633837228687	642
1	5802	481852.376825641887	643
1	5813	482554.668112378614	644
1	5820	483136.643799534114	645
1	5829	483629.124197736429	646
1	5838	484213.527105795266	647
1	5845	484618.831932311924	648
1	5854	485594.618119904819	649
1	5865	486346.880797902169	650
1	5872	486816.888109641196	651
1	5881	487724.370061839046	652
1	5890	488385.083586908923	653
1	5899	488966.187792783649	654
1	5910	489712.916484195785	655
1	5917	490093.728340370626	656
1	5930	491234.391503362031	657
1	5939	491750.936073018284	658
1	5946	492215.570830553816	659
1	5953	492767.281885910825	660
1	5964	493706.846095807897	661
1	5971	494111.028907494666	662
1	5980	495201.745449844794	663
1	5991	496235.5926600751	664
1	5998	496787.973274011211	665
1	6009	497813.68113448848	666
1	6016	498483.712125197099	667
1	6025	499313.866404304326	668
1	6036	500198.446210054726	669
1	6045	500673.615203658164	670
1	6056	501440.030328556941	671
1	6065	502165.515203448058	672
1	6074	503031.223167758481	673
1	6081	503517.68325171438	674
1	6088	503919.836888322653	675
1	6097	505005.826496752025	676
1	6106	505569.056788785429	677
1	6115	506586.949663655879	678
1	6128	507338.239186070906	679
1	6133	507678.77724152063	680
1	6146	509039.981412794487	681
1	6151	509453.543030982883	682
1	6162	510518.372121965559	683
1	6171	511288.486327836336	684
1	6178	511602.016507275449	685
1	6189	512492.42553915833	686
1	6196	512795.997858792589	687
1	6209	514132.703529344917	688
1	6216	514741.84132777159	689
1	6225	515595.774969505192	690
1	6232	516205.682732770265	691
1	6243	517104.670546716125	692
1	6250	517545.383914327295	693
1	6263	518766.083456296519	694
1	6272	519594.870120892347	695
1	6277	520245.589569909544	696
1	6286	520738.0168053322	697
1	6299	522082.63468877417	698
1	6306	522725.444675842346	699
1	6313	523448.172607692005	700
1	6326	524656.70701093045	701
1	6333	525447.18888038774	702
1	6344	526231.396863190504	703
1	6351	526791.42965180804	704
1	6360	527351.398098561959	705
1	6371	528221.372386487247	706
1	6378	528857.640747819142	707
1	6387	529581.255056010605	708
1	6398	530376.966247335122	709
1	6405	530813.883894542278	710
1	6412	531626.078014634595	711
1	6425	532496.844462398485	712
1	6430	532965.260735107631	713
1	6439	533994.69287814577	714
1	6448	534491.999895265371	715
1	6457	534926.203572889836	716
1	6466	535814.889576751785	717
1	6477	536882.368569821165	718
1	6484	537322.738885832996	719
1	6495	538493.943132692993	720
1	6502	539138.140121335209	721
1	6513	540007.746494282083	722
1	6524	540933.501533372373	723
1	6533	541567.299344530374	724
1	6538	542100.141017697796	725
1	6547	542655.900884745688	726
1	6558	543349.432967277289	727
1	6569	544265.95999631104	728
1	6576	544808.347202930645	729
1	6585	545628.56180858803	730
1	6596	546483.149494556757	731
1	6603	546895.415303763049	732
1	6610	547747.669690009253	733
1	6621	548360.710951639386	734
1	6628	548960.22457857621	735
1	6641	549915.173820639076	736
1	6646	550269.623151188763	737
1	6655	551070.76855539349	738
1	6666	551899.065081356141	739
1	6673	552722.098667454022	740
1	6684	553165.790185472044	741
1	6693	554046.019289502921	742
1	6700	554586.773181706715	743
1	6711	555429.577825265054	744
1	6718	555817.421033838813	745
1	6731	557185.594642208938	746
1	6740	557937.30444414546	747
1	6747	558499.260084936444	748
1	6754	559017.331050150145	749
1	6765	560304.556904453833	750
1	6772	561023.587388545324	751
1	6781	561690.442111529459	752
1	6792	562531.399790709888	753
1	6799	563254.896939313089	754
1	6812	564285.30730213975	755
1	6821	565033.457596879503	756
1	6826	565390.152119798636	757
1	6837	566151.601951243406	758
1	6844	566523.830335680446	759
1	6849	567113.877179101161	760
1	6862	568390.796285541779	761
1	6873	569484.903106978214	762
1	6880	570003.176228469289	763
1	6891	570971.530286455578	764
1	6900	571546.082035359046	765
1	6907	571875.220568385026	766
1	6916	572525.131355691752	767
1	6929	573455.649949796549	768
1	6936	574190.756758488766	769
1	6945	574951.447220100141	770
1	6956	575951.523251831583	771
1	6961	576351.384210074372	772
1	6970	576996.65069715125	773
1	6981	577769.273110991396	774
1	6988	578249.290607823111	775
1	6997	579200.946331350184	776
1	7008	579659.370050160266	777
1	7015	580194.525892054714	778
1	7028	581140.53184404043	779
1	7035	581580.180632136813	780
1	7044	582337.588233500771	781
1	7055	583164.11682511685	782
1	7060	583929.193149553664	783
1	7071	584705.569813773088	784
1	7078	585269.428967451729	785
1	7091	585824.408213049225	786
1	7096	586348.78563755197	787
1	7107	587458.703822549484	788
1	7116	587851.900294795684	789
1	7125	588486.350201815418	790
1	7134	589128.292723791725	791
1	7145	590161.435771733574	792
1	7150	590463.227585284091	793
1	7161	591444.693913869611	794
1	7170	592043.042205926082	795
1	7177	592810.277982009627	796
1	7188	593454.286412615381	797
1	7195	593781.023909803532	798
1	7204	595254.63574700994	799
1	7213	595840.937527455442	800
1	7224	596287.309187511034	801
1	7235	596990.044096252002	802
1	7244	597844.81211062526	803
1	7253	598697.817104123585	804
1	7262	599498.090194165759	805
1	7267	599862.501387018763	806
1	7278	600744.118242105521	807
1	7287	601533.120197709702	808
1	7298	602170.4114303459	809
1	7303	602819.349034270324	810
1	7316	603729.771172022499	811
1	7323	604194.721013121359	812

